*SPEF "ieee 1481-1999"
*DESIGN "divider"
*DATE "11:11:11 Fri 11 11, 1111"
*VENDOR "OpenRCX"
*PROGRAM "Parallel Extraction"
*VERSION "1.0"
*DESIGN_FLOW "NAME_SCOPE LOCAL" "PIN_CAP NONE"
*DIVIDER /
*DELIMITER :
*BUS_DELIMITER []
*T_UNIT 1 NS
*C_UNIT 1 PF
*R_UNIT 1 OHM
*L_UNIT 1 HENRY

*NAME_MAP
*1 clk
*2 cout1
*3 cout10
*4 cout2
*5 cout3
*6 cout4
*7 cout5
*8 cout6
*9 cout7
*10 cout8
*11 cout9
*14 _0000_
*15 _0001_
*16 _0002_
*17 _0003_
*18 _0004_
*19 _0005_
*20 _0006_
*21 _0007_
*22 _0008_
*23 _0009_
*24 _0010_
*25 _0011_
*26 _0012_
*27 _0013_
*28 _0014_
*29 _0015_
*30 _0037_
*31 _0038_
*32 _0039_
*33 _0040_
*34 _0041_
*35 _0042_
*36 _0065_
*37 _0066_
*38 _0067_
*39 _0068_
*40 _0069_
*41 _0093_
*42 _0094_
*43 _0095_
*44 _0096_
*45 _0121_
*46 _0122_
*47 _0123_
*48 _0149_
*49 _0150_
*50 _0177_
*51 _0205_
*52 _0206_
*53 _0207_
*54 _0208_
*55 _0209_
*56 _0210_
*57 _0211_
*58 _0212_
*59 _0213_
*60 _0214_
*61 _0233_
*62 _0234_
*63 _0235_
*64 _0236_
*65 _0237_
*66 _0238_
*67 _0239_
*68 _0240_
*69 _0241_
*70 _0261_
*71 _0262_
*72 _0263_
*73 _0264_
*74 _0265_
*75 _0266_
*76 _0267_
*77 _0268_
*78 _0289_
*79 _0290_
*80 _0291_
*81 _0292_
*82 _0293_
*83 _0294_
*84 _0295_
*85 _0296_
*86 _0297_
*87 _0298_
*88 _0299_
*89 _0300_
*90 _0301_
*91 _0302_
*92 _0303_
*93 _0304_
*94 _0305_
*95 _0306_
*96 _0307_
*97 _0308_
*98 _0309_
*99 _0310_
*100 _0311_
*101 _0312_
*102 _0313_
*103 _0314_
*104 _0315_
*105 _0316_
*106 _0317_
*107 _0318_
*108 _0319_
*109 _0320_
*110 _0321_
*111 _0322_
*112 _0323_
*113 _0324_
*114 _0325_
*115 _0326_
*116 _0327_
*117 _0328_
*118 _0329_
*119 _0330_
*120 _0331_
*121 _0332_
*122 _0333_
*123 _0334_
*124 _0335_
*125 _0336_
*126 _0337_
*127 _0338_
*128 _0339_
*129 _0340_
*130 _0341_
*131 _0342_
*132 _0343_
*133 _0344_
*134 _0345_
*135 _0346_
*136 _0347_
*137 _0348_
*138 _0349_
*139 _0350_
*140 _0351_
*141 _0352_
*142 _0353_
*143 _0354_
*144 _0355_
*145 _0356_
*146 _0357_
*147 _0358_
*148 _0359_
*149 _0360_
*150 _0361_
*151 _0362_
*152 _0363_
*153 _0364_
*154 _0365_
*155 _0366_
*156 _0367_
*157 _0368_
*158 _0369_
*159 _0370_
*160 _0371_
*161 _0372_
*162 _0373_
*163 _0374_
*164 _0375_
*165 _0376_
*166 _0377_
*167 _0378_
*168 _0379_
*169 _0380_
*170 _0381_
*171 _0382_
*172 _0383_
*173 _0384_
*174 _0385_
*175 _0386_
*176 _0387_
*177 _0388_
*178 _0389_
*179 _0390_
*180 _0391_
*181 _0392_
*182 _0393_
*183 _0394_
*184 _0395_
*185 _0396_
*186 _0397_
*187 _0398_
*188 _0399_
*189 _0400_
*190 _0401_
*191 _0402_
*192 _0403_
*193 _0404_
*194 _0405_
*195 _0406_
*196 _0407_
*197 _0408_
*198 _0409_
*199 _0410_
*200 _0411_
*201 _0412_
*202 _0413_
*203 _0414_
*204 _0415_
*205 _0416_
*206 _0417_
*207 _0418_
*208 _0419_
*209 _0420_
*210 _0421_
*211 _0422_
*212 _0423_
*213 _0424_
*214 _0425_
*215 _0426_
*216 _0427_
*217 _0428_
*218 _0429_
*219 _0430_
*220 _0431_
*221 _0432_
*222 _0433_
*223 _0434_
*224 _0435_
*225 _0436_
*226 _0437_
*227 _0438_
*228 _0439_
*229 _0440_
*230 _0441_
*231 _0442_
*232 _0443_
*233 _0444_
*234 _0445_
*235 _0446_
*236 _0447_
*237 _0448_
*238 _0449_
*239 _0450_
*240 _0451_
*241 _0452_
*242 _0453_
*243 _0454_
*244 _0455_
*245 _0456_
*246 _0457_
*247 _0458_
*248 _0459_
*249 _0460_
*250 _0461_
*251 _0462_
*252 _0463_
*253 _0464_
*254 _0465_
*255 _0466_
*256 _0467_
*257 _0468_
*258 _0469_
*259 _0470_
*260 _0471_
*261 _0472_
*262 _0473_
*263 _0474_
*264 _0475_
*265 _0476_
*266 _0477_
*267 _0478_
*268 _0479_
*269 _0480_
*270 _0481_
*271 _0482_
*272 _0483_
*273 _0484_
*274 _0485_
*275 _0486_
*276 _0487_
*277 _0488_
*278 _0489_
*279 _0490_
*280 _0491_
*281 _0492_
*282 _0493_
*283 _0494_
*284 _0495_
*285 _0496_
*286 _0497_
*287 _0498_
*288 _0499_
*289 _0500_
*290 clknet_0_clk
*291 clknet_1_0__leaf_clk
*292 clknet_1_1__leaf_clk
*293 clknet_leaf_0_clk
*294 clknet_leaf_10_clk
*295 clknet_leaf_11_clk
*296 clknet_leaf_12_clk
*297 clknet_leaf_13_clk
*298 clknet_leaf_14_clk
*299 clknet_leaf_15_clk
*300 clknet_leaf_16_clk
*301 clknet_leaf_17_clk
*302 clknet_leaf_18_clk
*303 clknet_leaf_19_clk
*304 clknet_leaf_1_clk
*305 clknet_leaf_20_clk
*306 clknet_leaf_21_clk
*307 clknet_leaf_22_clk
*308 clknet_leaf_23_clk
*309 clknet_leaf_24_clk
*310 clknet_leaf_25_clk
*311 clknet_leaf_26_clk
*312 clknet_leaf_27_clk
*313 clknet_leaf_2_clk
*314 clknet_leaf_3_clk
*315 clknet_leaf_4_clk
*316 clknet_leaf_5_clk
*317 clknet_leaf_6_clk
*318 clknet_leaf_7_clk
*319 clknet_leaf_8_clk
*320 clknet_leaf_9_clk
*321 clknet_opt_1_0_clk
*322 clknet_opt_2_0_clk
*323 clknet_opt_3_0_clk
*324 counter10\[0\]
*325 counter10\[10\]
*326 counter10\[11\]
*327 counter10\[12\]
*328 counter10\[13\]
*329 counter10\[14\]
*330 counter10\[15\]
*331 counter10\[16\]
*332 counter10\[17\]
*333 counter10\[18\]
*334 counter10\[19\]
*335 counter10\[1\]
*336 counter10\[20\]
*337 counter10\[21\]
*338 counter10\[22\]
*339 counter10\[23\]
*340 counter10\[24\]
*341 counter10\[25\]
*342 counter10\[26\]
*343 counter10\[27\]
*344 counter10\[2\]
*345 counter10\[3\]
*346 counter10\[4\]
*347 counter10\[5\]
*348 counter10\[6\]
*349 counter10\[7\]
*350 counter10\[8\]
*351 counter10\[9\]
*352 counter2\[0\]
*353 counter2\[10\]
*354 counter2\[11\]
*355 counter2\[12\]
*356 counter2\[13\]
*357 counter2\[14\]
*358 counter2\[15\]
*359 counter2\[16\]
*360 counter2\[17\]
*361 counter2\[18\]
*362 counter2\[19\]
*363 counter2\[1\]
*364 counter2\[20\]
*365 counter2\[21\]
*366 counter2\[22\]
*367 counter2\[23\]
*368 counter2\[24\]
*369 counter2\[25\]
*370 counter2\[26\]
*371 counter2\[27\]
*372 counter2\[2\]
*373 counter2\[3\]
*374 counter2\[4\]
*375 counter2\[5\]
*376 counter2\[6\]
*377 counter2\[7\]
*378 counter2\[8\]
*379 counter2\[9\]
*380 counter3\[0\]
*381 counter3\[10\]
*382 counter3\[11\]
*383 counter3\[12\]
*384 counter3\[13\]
*385 counter3\[14\]
*386 counter3\[15\]
*387 counter3\[16\]
*388 counter3\[17\]
*389 counter3\[18\]
*390 counter3\[19\]
*391 counter3\[1\]
*392 counter3\[20\]
*393 counter3\[21\]
*394 counter3\[22\]
*395 counter3\[23\]
*396 counter3\[24\]
*397 counter3\[25\]
*398 counter3\[26\]
*399 counter3\[27\]
*400 counter3\[2\]
*401 counter3\[3\]
*402 counter3\[4\]
*403 counter3\[5\]
*404 counter3\[6\]
*405 counter3\[7\]
*406 counter3\[8\]
*407 counter3\[9\]
*408 counter4\[0\]
*409 counter4\[10\]
*410 counter4\[11\]
*411 counter4\[12\]
*412 counter4\[13\]
*413 counter4\[14\]
*414 counter4\[15\]
*415 counter4\[16\]
*416 counter4\[17\]
*417 counter4\[18\]
*418 counter4\[19\]
*419 counter4\[1\]
*420 counter4\[20\]
*421 counter4\[21\]
*422 counter4\[22\]
*423 counter4\[23\]
*424 counter4\[24\]
*425 counter4\[25\]
*426 counter4\[26\]
*427 counter4\[27\]
*428 counter4\[2\]
*429 counter4\[3\]
*430 counter4\[4\]
*431 counter4\[5\]
*432 counter4\[6\]
*433 counter4\[7\]
*434 counter4\[8\]
*435 counter4\[9\]
*436 counter5\[0\]
*437 counter5\[10\]
*438 counter5\[11\]
*439 counter5\[12\]
*440 counter5\[13\]
*441 counter5\[14\]
*442 counter5\[15\]
*443 counter5\[16\]
*444 counter5\[17\]
*445 counter5\[18\]
*446 counter5\[19\]
*447 counter5\[1\]
*448 counter5\[20\]
*449 counter5\[21\]
*450 counter5\[22\]
*451 counter5\[23\]
*452 counter5\[24\]
*453 counter5\[25\]
*454 counter5\[26\]
*455 counter5\[27\]
*456 counter5\[2\]
*457 counter5\[3\]
*458 counter5\[4\]
*459 counter5\[5\]
*460 counter5\[6\]
*461 counter5\[7\]
*462 counter5\[8\]
*463 counter5\[9\]
*464 counter6\[0\]
*465 counter6\[10\]
*466 counter6\[11\]
*467 counter6\[12\]
*468 counter6\[13\]
*469 counter6\[14\]
*470 counter6\[15\]
*471 counter6\[16\]
*472 counter6\[17\]
*473 counter6\[18\]
*474 counter6\[19\]
*475 counter6\[1\]
*476 counter6\[20\]
*477 counter6\[21\]
*478 counter6\[22\]
*479 counter6\[23\]
*480 counter6\[24\]
*481 counter6\[25\]
*482 counter6\[26\]
*483 counter6\[27\]
*484 counter6\[2\]
*485 counter6\[3\]
*486 counter6\[4\]
*487 counter6\[5\]
*488 counter6\[6\]
*489 counter6\[7\]
*490 counter6\[8\]
*491 counter6\[9\]
*492 counter7\[0\]
*493 counter7\[10\]
*494 counter7\[11\]
*495 counter7\[12\]
*496 counter7\[13\]
*497 counter7\[14\]
*498 counter7\[15\]
*499 counter7\[16\]
*500 counter7\[17\]
*501 counter7\[18\]
*502 counter7\[19\]
*503 counter7\[1\]
*504 counter7\[20\]
*505 counter7\[21\]
*506 counter7\[22\]
*507 counter7\[23\]
*508 counter7\[24\]
*509 counter7\[25\]
*510 counter7\[26\]
*511 counter7\[27\]
*512 counter7\[2\]
*513 counter7\[3\]
*514 counter7\[4\]
*515 counter7\[5\]
*516 counter7\[6\]
*517 counter7\[7\]
*518 counter7\[8\]
*519 counter7\[9\]
*520 counter8\[0\]
*521 counter8\[10\]
*522 counter8\[11\]
*523 counter8\[12\]
*524 counter8\[13\]
*525 counter8\[14\]
*526 counter8\[15\]
*527 counter8\[16\]
*528 counter8\[17\]
*529 counter8\[18\]
*530 counter8\[19\]
*531 counter8\[1\]
*532 counter8\[20\]
*533 counter8\[21\]
*534 counter8\[22\]
*535 counter8\[23\]
*536 counter8\[24\]
*537 counter8\[25\]
*538 counter8\[26\]
*539 counter8\[27\]
*540 counter8\[2\]
*541 counter8\[3\]
*542 counter8\[4\]
*543 counter8\[5\]
*544 counter8\[6\]
*545 counter8\[7\]
*546 counter8\[8\]
*547 counter8\[9\]
*548 counter9\[0\]
*549 counter9\[10\]
*550 counter9\[11\]
*551 counter9\[12\]
*552 counter9\[13\]
*553 counter9\[14\]
*554 counter9\[15\]
*555 counter9\[16\]
*556 counter9\[17\]
*557 counter9\[18\]
*558 counter9\[19\]
*559 counter9\[1\]
*560 counter9\[20\]
*561 counter9\[21\]
*562 counter9\[22\]
*563 counter9\[23\]
*564 counter9\[24\]
*565 counter9\[25\]
*566 counter9\[26\]
*567 counter9\[27\]
*568 counter9\[2\]
*569 counter9\[3\]
*570 counter9\[4\]
*571 counter9\[5\]
*572 counter9\[6\]
*573 counter9\[7\]
*574 counter9\[8\]
*575 counter9\[9\]
*576 counter\[0\]
*577 counter\[10\]
*578 counter\[11\]
*579 counter\[12\]
*580 counter\[13\]
*581 counter\[14\]
*582 counter\[15\]
*583 counter\[16\]
*584 counter\[17\]
*585 counter\[18\]
*586 counter\[19\]
*587 counter\[1\]
*588 counter\[20\]
*589 counter\[21\]
*590 counter\[22\]
*591 counter\[23\]
*592 counter\[24\]
*593 counter\[25\]
*594 counter\[26\]
*595 counter\[27\]
*596 counter\[2\]
*597 counter\[3\]
*598 counter\[4\]
*599 counter\[5\]
*600 counter\[6\]
*601 counter\[7\]
*602 counter\[8\]
*603 counter\[9\]
*604 net1
*605 net10
*606 net100
*607 net101
*608 net102
*609 net103
*610 net104
*611 net105
*612 net106
*613 net107
*614 net108
*615 net109
*616 net11
*617 net110
*618 net111
*619 net112
*620 net113
*621 net114
*622 net115
*623 net116
*624 net117
*625 net118
*626 net119
*627 net12
*628 net120
*629 net121
*630 net122
*631 net123
*632 net124
*633 net125
*634 net126
*635 net127
*636 net128
*637 net129
*638 net13
*639 net130
*640 net131
*641 net132
*642 net133
*643 net134
*644 net135
*645 net136
*646 net137
*647 net138
*648 net139
*649 net14
*650 net140
*651 net141
*652 net142
*653 net143
*654 net144
*655 net145
*656 net146
*657 net147
*658 net148
*659 net149
*660 net15
*661 net150
*662 net151
*663 net152
*664 net153
*665 net154
*666 net155
*667 net156
*668 net157
*669 net158
*670 net159
*671 net16
*672 net160
*673 net161
*674 net162
*675 net163
*676 net164
*677 net165
*678 net166
*679 net167
*680 net168
*681 net169
*682 net17
*683 net170
*684 net171
*685 net172
*686 net173
*687 net174
*688 net175
*689 net176
*690 net177
*691 net178
*692 net179
*693 net18
*694 net180
*695 net181
*696 net182
*697 net183
*698 net184
*699 net185
*700 net186
*701 net187
*702 net188
*703 net189
*704 net19
*705 net190
*706 net191
*707 net192
*708 net193
*709 net194
*710 net195
*711 net196
*712 net197
*713 net198
*714 net199
*715 net2
*716 net20
*717 net200
*718 net201
*719 net202
*720 net203
*721 net204
*722 net205
*723 net206
*724 net207
*725 net208
*726 net209
*727 net21
*728 net210
*729 net211
*730 net212
*731 net213
*732 net214
*733 net215
*734 net216
*735 net217
*736 net218
*737 net219
*738 net22
*739 net220
*740 net221
*741 net222
*742 net223
*743 net224
*744 net225
*745 net226
*746 net227
*747 net228
*748 net229
*749 net23
*750 net230
*751 net231
*752 net232
*753 net233
*754 net234
*755 net235
*756 net24
*757 net25
*758 net26
*759 net27
*760 net28
*761 net29
*762 net3
*763 net30
*764 net31
*765 net32
*766 net33
*767 net34
*768 net35
*769 net36
*770 net37
*771 net38
*772 net39
*773 net4
*774 net40
*775 net41
*776 net42
*777 net43
*778 net44
*779 net45
*780 net46
*781 net47
*782 net48
*783 net49
*784 net5
*785 net50
*786 net51
*787 net52
*788 net53
*789 net54
*790 net55
*791 net56
*792 net57
*793 net58
*794 net59
*795 net6
*796 net60
*797 net61
*798 net62
*799 net63
*800 net64
*801 net65
*802 net66
*803 net67
*804 net68
*805 net69
*806 net7
*807 net70
*808 net71
*809 net72
*810 net73
*811 net74
*812 net75
*813 net76
*814 net77
*815 net78
*816 net79
*817 net8
*818 net80
*819 net81
*820 net82
*821 net83
*822 net84
*823 net85
*824 net86
*825 net87
*826 net88
*827 net89
*828 net9
*829 net90
*830 net91
*831 net92
*832 net93
*833 net94
*834 net95
*835 net96
*836 net97
*837 net98
*838 net99
*839 ANTENNA_clkbuf_0_clk_A
*840 ANTENNA_clkbuf_1_0__f_clk_A
*841 ANTENNA_clkbuf_1_1__f_clk_A
*842 ANTENNA_clkbuf_leaf_0_clk_A
*843 ANTENNA_clkbuf_leaf_10_clk_A
*844 ANTENNA_clkbuf_leaf_11_clk_A
*845 ANTENNA_clkbuf_leaf_13_clk_A
*846 ANTENNA_clkbuf_leaf_14_clk_A
*847 ANTENNA_clkbuf_leaf_15_clk_A
*848 ANTENNA_clkbuf_leaf_16_clk_A
*849 ANTENNA_clkbuf_leaf_17_clk_A
*850 ANTENNA_clkbuf_leaf_18_clk_A
*851 ANTENNA_clkbuf_leaf_19_clk_A
*852 ANTENNA_clkbuf_leaf_1_clk_A
*853 ANTENNA_clkbuf_leaf_20_clk_A
*854 ANTENNA_clkbuf_leaf_22_clk_A
*855 ANTENNA_clkbuf_leaf_23_clk_A
*856 ANTENNA_clkbuf_leaf_24_clk_A
*857 ANTENNA_clkbuf_leaf_25_clk_A
*858 ANTENNA_clkbuf_leaf_26_clk_A
*859 ANTENNA_clkbuf_leaf_27_clk_A
*860 ANTENNA_clkbuf_leaf_2_clk_A
*861 ANTENNA_clkbuf_leaf_3_clk_A
*862 ANTENNA_clkbuf_leaf_4_clk_A
*863 ANTENNA_clkbuf_leaf_6_clk_A
*864 ANTENNA_clkbuf_leaf_7_clk_A
*865 ANTENNA_clkbuf_leaf_8_clk_A
*866 ANTENNA_clkbuf_leaf_9_clk_A
*867 ANTENNA_clkbuf_opt_1_0_clk_A
*868 ANTENNA_clkbuf_opt_2_0_clk_A
*869 ANTENNA_clkbuf_opt_3_0_clk_A
*870 ANTENNA_output1_A
*871 FILLER_0_109
*872 FILLER_0_113
*873 FILLER_0_125
*874 FILLER_0_137
*875 FILLER_0_141
*876 FILLER_0_153
*877 FILLER_0_165
*878 FILLER_0_169
*879 FILLER_0_181
*880 FILLER_0_193
*881 FILLER_0_197
*882 FILLER_0_209
*883 FILLER_0_21
*884 FILLER_0_221
*885 FILLER_0_225
*886 FILLER_0_231
*887 FILLER_0_243
*888 FILLER_0_251
*889 FILLER_0_253
*890 FILLER_0_265
*891 FILLER_0_27
*892 FILLER_0_277
*893 FILLER_0_281
*894 FILLER_0_29
*895 FILLER_0_293
*896 FILLER_0_3
*897 FILLER_0_305
*898 FILLER_0_309
*899 FILLER_0_321
*900 FILLER_0_333
*901 FILLER_0_337
*902 FILLER_0_349
*903 FILLER_0_361
*904 FILLER_0_365
*905 FILLER_0_377
*906 FILLER_0_389
*907 FILLER_0_393
*908 FILLER_0_405
*909 FILLER_0_41
*910 FILLER_0_417
*911 FILLER_0_421
*912 FILLER_0_433
*913 FILLER_0_445
*914 FILLER_0_449
*915 FILLER_0_455
*916 FILLER_0_467
*917 FILLER_0_475
*918 FILLER_0_477
*919 FILLER_0_489
*920 FILLER_0_501
*921 FILLER_0_505
*922 FILLER_0_517
*923 FILLER_0_529
*924 FILLER_0_53
*925 FILLER_0_533
*926 FILLER_0_545
*927 FILLER_0_557
*928 FILLER_0_561
*929 FILLER_0_57
*930 FILLER_0_573
*931 FILLER_0_585
*932 FILLER_0_589
*933 FILLER_0_601
*934 FILLER_0_613
*935 FILLER_0_617
*936 FILLER_0_69
*937 FILLER_0_81
*938 FILLER_0_85
*939 FILLER_0_9
*940 FILLER_0_97
*941 FILLER_100_109
*942 FILLER_100_121
*943 FILLER_100_133
*944 FILLER_100_139
*945 FILLER_100_141
*946 FILLER_100_15
*947 FILLER_100_153
*948 FILLER_100_165
*949 FILLER_100_177
*950 FILLER_100_189
*951 FILLER_100_195
*952 FILLER_100_197
*953 FILLER_100_209
*954 FILLER_100_221
*955 FILLER_100_233
*956 FILLER_100_245
*957 FILLER_100_251
*958 FILLER_100_253
*959 FILLER_100_265
*960 FILLER_100_27
*961 FILLER_100_277
*962 FILLER_100_289
*963 FILLER_100_29
*964 FILLER_100_3
*965 FILLER_100_301
*966 FILLER_100_307
*967 FILLER_100_309
*968 FILLER_100_321
*969 FILLER_100_333
*970 FILLER_100_345
*971 FILLER_100_357
*972 FILLER_100_363
*973 FILLER_100_365
*974 FILLER_100_377
*975 FILLER_100_389
*976 FILLER_100_401
*977 FILLER_100_41
*978 FILLER_100_413
*979 FILLER_100_419
*980 FILLER_100_421
*981 FILLER_100_433
*982 FILLER_100_445
*983 FILLER_100_457
*984 FILLER_100_469
*985 FILLER_100_475
*986 FILLER_100_477
*987 FILLER_100_489
*988 FILLER_100_501
*989 FILLER_100_513
*990 FILLER_100_525
*991 FILLER_100_53
*992 FILLER_100_531
*993 FILLER_100_533
*994 FILLER_100_545
*995 FILLER_100_557
*996 FILLER_100_569
*997 FILLER_100_581
*998 FILLER_100_587
*999 FILLER_100_589
*1000 FILLER_100_601
*1001 FILLER_100_613
*1002 FILLER_100_65
*1003 FILLER_100_77
*1004 FILLER_100_83
*1005 FILLER_100_85
*1006 FILLER_100_97
*1007 FILLER_101_109
*1008 FILLER_101_113
*1009 FILLER_101_125
*1010 FILLER_101_137
*1011 FILLER_101_141
*1012 FILLER_101_15
*1013 FILLER_101_153
*1014 FILLER_101_165
*1015 FILLER_101_169
*1016 FILLER_101_181
*1017 FILLER_101_193
*1018 FILLER_101_197
*1019 FILLER_101_209
*1020 FILLER_101_221
*1021 FILLER_101_225
*1022 FILLER_101_237
*1023 FILLER_101_249
*1024 FILLER_101_253
*1025 FILLER_101_265
*1026 FILLER_101_27
*1027 FILLER_101_277
*1028 FILLER_101_281
*1029 FILLER_101_29
*1030 FILLER_101_293
*1031 FILLER_101_3
*1032 FILLER_101_301
*1033 FILLER_101_307
*1034 FILLER_101_309
*1035 FILLER_101_321
*1036 FILLER_101_333
*1037 FILLER_101_337
*1038 FILLER_101_349
*1039 FILLER_101_361
*1040 FILLER_101_365
*1041 FILLER_101_377
*1042 FILLER_101_389
*1043 FILLER_101_393
*1044 FILLER_101_405
*1045 FILLER_101_41
*1046 FILLER_101_417
*1047 FILLER_101_421
*1048 FILLER_101_433
*1049 FILLER_101_445
*1050 FILLER_101_449
*1051 FILLER_101_461
*1052 FILLER_101_473
*1053 FILLER_101_477
*1054 FILLER_101_489
*1055 FILLER_101_501
*1056 FILLER_101_505
*1057 FILLER_101_517
*1058 FILLER_101_529
*1059 FILLER_101_53
*1060 FILLER_101_533
*1061 FILLER_101_539
*1062 FILLER_101_551
*1063 FILLER_101_559
*1064 FILLER_101_561
*1065 FILLER_101_57
*1066 FILLER_101_573
*1067 FILLER_101_585
*1068 FILLER_101_589
*1069 FILLER_101_601
*1070 FILLER_101_613
*1071 FILLER_101_617
*1072 FILLER_101_63
*1073 FILLER_101_75
*1074 FILLER_101_83
*1075 FILLER_101_85
*1076 FILLER_101_97
*1077 FILLER_10_109
*1078 FILLER_10_121
*1079 FILLER_10_133
*1080 FILLER_10_139
*1081 FILLER_10_141
*1082 FILLER_10_15
*1083 FILLER_10_153
*1084 FILLER_10_165
*1085 FILLER_10_177
*1086 FILLER_10_189
*1087 FILLER_10_195
*1088 FILLER_10_197
*1089 FILLER_10_209
*1090 FILLER_10_221
*1091 FILLER_10_233
*1092 FILLER_10_245
*1093 FILLER_10_251
*1094 FILLER_10_253
*1095 FILLER_10_265
*1096 FILLER_10_27
*1097 FILLER_10_277
*1098 FILLER_10_289
*1099 FILLER_10_29
*1100 FILLER_10_3
*1101 FILLER_10_301
*1102 FILLER_10_307
*1103 FILLER_10_309
*1104 FILLER_10_321
*1105 FILLER_10_333
*1106 FILLER_10_345
*1107 FILLER_10_357
*1108 FILLER_10_363
*1109 FILLER_10_365
*1110 FILLER_10_377
*1111 FILLER_10_389
*1112 FILLER_10_401
*1113 FILLER_10_41
*1114 FILLER_10_413
*1115 FILLER_10_419
*1116 FILLER_10_421
*1117 FILLER_10_433
*1118 FILLER_10_445
*1119 FILLER_10_457
*1120 FILLER_10_469
*1121 FILLER_10_475
*1122 FILLER_10_477
*1123 FILLER_10_489
*1124 FILLER_10_501
*1125 FILLER_10_513
*1126 FILLER_10_525
*1127 FILLER_10_53
*1128 FILLER_10_531
*1129 FILLER_10_533
*1130 FILLER_10_545
*1131 FILLER_10_557
*1132 FILLER_10_569
*1133 FILLER_10_581
*1134 FILLER_10_587
*1135 FILLER_10_589
*1136 FILLER_10_601
*1137 FILLER_10_613
*1138 FILLER_10_65
*1139 FILLER_10_77
*1140 FILLER_10_83
*1141 FILLER_10_85
*1142 FILLER_10_97
*1143 FILLER_11_105
*1144 FILLER_11_111
*1145 FILLER_11_113
*1146 FILLER_11_125
*1147 FILLER_11_137
*1148 FILLER_11_149
*1149 FILLER_11_15
*1150 FILLER_11_161
*1151 FILLER_11_167
*1152 FILLER_11_169
*1153 FILLER_11_181
*1154 FILLER_11_193
*1155 FILLER_11_205
*1156 FILLER_11_217
*1157 FILLER_11_223
*1158 FILLER_11_225
*1159 FILLER_11_237
*1160 FILLER_11_249
*1161 FILLER_11_261
*1162 FILLER_11_27
*1163 FILLER_11_273
*1164 FILLER_11_279
*1165 FILLER_11_281
*1166 FILLER_11_293
*1167 FILLER_11_3
*1168 FILLER_11_305
*1169 FILLER_11_317
*1170 FILLER_11_329
*1171 FILLER_11_335
*1172 FILLER_11_337
*1173 FILLER_11_349
*1174 FILLER_11_361
*1175 FILLER_11_373
*1176 FILLER_11_385
*1177 FILLER_11_39
*1178 FILLER_11_391
*1179 FILLER_11_393
*1180 FILLER_11_405
*1181 FILLER_11_417
*1182 FILLER_11_429
*1183 FILLER_11_441
*1184 FILLER_11_447
*1185 FILLER_11_449
*1186 FILLER_11_461
*1187 FILLER_11_473
*1188 FILLER_11_485
*1189 FILLER_11_497
*1190 FILLER_11_503
*1191 FILLER_11_505
*1192 FILLER_11_51
*1193 FILLER_11_517
*1194 FILLER_11_529
*1195 FILLER_11_541
*1196 FILLER_11_55
*1197 FILLER_11_553
*1198 FILLER_11_559
*1199 FILLER_11_561
*1200 FILLER_11_57
*1201 FILLER_11_573
*1202 FILLER_11_585
*1203 FILLER_11_597
*1204 FILLER_11_609
*1205 FILLER_11_615
*1206 FILLER_11_617
*1207 FILLER_11_69
*1208 FILLER_11_81
*1209 FILLER_11_93
*1210 FILLER_12_109
*1211 FILLER_12_121
*1212 FILLER_12_133
*1213 FILLER_12_139
*1214 FILLER_12_141
*1215 FILLER_12_15
*1216 FILLER_12_153
*1217 FILLER_12_165
*1218 FILLER_12_177
*1219 FILLER_12_189
*1220 FILLER_12_195
*1221 FILLER_12_197
*1222 FILLER_12_209
*1223 FILLER_12_221
*1224 FILLER_12_233
*1225 FILLER_12_245
*1226 FILLER_12_251
*1227 FILLER_12_253
*1228 FILLER_12_265
*1229 FILLER_12_27
*1230 FILLER_12_277
*1231 FILLER_12_289
*1232 FILLER_12_29
*1233 FILLER_12_3
*1234 FILLER_12_301
*1235 FILLER_12_307
*1236 FILLER_12_309
*1237 FILLER_12_321
*1238 FILLER_12_333
*1239 FILLER_12_345
*1240 FILLER_12_357
*1241 FILLER_12_363
*1242 FILLER_12_365
*1243 FILLER_12_377
*1244 FILLER_12_389
*1245 FILLER_12_401
*1246 FILLER_12_41
*1247 FILLER_12_413
*1248 FILLER_12_419
*1249 FILLER_12_421
*1250 FILLER_12_433
*1251 FILLER_12_445
*1252 FILLER_12_457
*1253 FILLER_12_469
*1254 FILLER_12_475
*1255 FILLER_12_477
*1256 FILLER_12_489
*1257 FILLER_12_501
*1258 FILLER_12_513
*1259 FILLER_12_525
*1260 FILLER_12_53
*1261 FILLER_12_531
*1262 FILLER_12_533
*1263 FILLER_12_545
*1264 FILLER_12_557
*1265 FILLER_12_569
*1266 FILLER_12_581
*1267 FILLER_12_587
*1268 FILLER_12_589
*1269 FILLER_12_601
*1270 FILLER_12_613
*1271 FILLER_12_65
*1272 FILLER_12_77
*1273 FILLER_12_83
*1274 FILLER_12_85
*1275 FILLER_12_97
*1276 FILLER_13_105
*1277 FILLER_13_111
*1278 FILLER_13_113
*1279 FILLER_13_125
*1280 FILLER_13_137
*1281 FILLER_13_149
*1282 FILLER_13_15
*1283 FILLER_13_161
*1284 FILLER_13_167
*1285 FILLER_13_169
*1286 FILLER_13_181
*1287 FILLER_13_193
*1288 FILLER_13_205
*1289 FILLER_13_21
*1290 FILLER_13_217
*1291 FILLER_13_223
*1292 FILLER_13_225
*1293 FILLER_13_237
*1294 FILLER_13_249
*1295 FILLER_13_261
*1296 FILLER_13_273
*1297 FILLER_13_279
*1298 FILLER_13_281
*1299 FILLER_13_293
*1300 FILLER_13_3
*1301 FILLER_13_305
*1302 FILLER_13_317
*1303 FILLER_13_329
*1304 FILLER_13_33
*1305 FILLER_13_335
*1306 FILLER_13_337
*1307 FILLER_13_349
*1308 FILLER_13_361
*1309 FILLER_13_373
*1310 FILLER_13_385
*1311 FILLER_13_391
*1312 FILLER_13_393
*1313 FILLER_13_405
*1314 FILLER_13_417
*1315 FILLER_13_425
*1316 FILLER_13_444
*1317 FILLER_13_449
*1318 FILLER_13_45
*1319 FILLER_13_456
*1320 FILLER_13_468
*1321 FILLER_13_480
*1322 FILLER_13_492
*1323 FILLER_13_505
*1324 FILLER_13_51
*1325 FILLER_13_517
*1326 FILLER_13_529
*1327 FILLER_13_541
*1328 FILLER_13_55
*1329 FILLER_13_553
*1330 FILLER_13_559
*1331 FILLER_13_561
*1332 FILLER_13_57
*1333 FILLER_13_573
*1334 FILLER_13_585
*1335 FILLER_13_597
*1336 FILLER_13_609
*1337 FILLER_13_615
*1338 FILLER_13_617
*1339 FILLER_13_69
*1340 FILLER_13_81
*1341 FILLER_13_93
*1342 FILLER_14_109
*1343 FILLER_14_121
*1344 FILLER_14_133
*1345 FILLER_14_139
*1346 FILLER_14_141
*1347 FILLER_14_153
*1348 FILLER_14_165
*1349 FILLER_14_177
*1350 FILLER_14_189
*1351 FILLER_14_195
*1352 FILLER_14_197
*1353 FILLER_14_21
*1354 FILLER_14_221
*1355 FILLER_14_233
*1356 FILLER_14_245
*1357 FILLER_14_251
*1358 FILLER_14_253
*1359 FILLER_14_265
*1360 FILLER_14_27
*1361 FILLER_14_277
*1362 FILLER_14_289
*1363 FILLER_14_29
*1364 FILLER_14_3
*1365 FILLER_14_301
*1366 FILLER_14_307
*1367 FILLER_14_309
*1368 FILLER_14_321
*1369 FILLER_14_333
*1370 FILLER_14_345
*1371 FILLER_14_357
*1372 FILLER_14_363
*1373 FILLER_14_365
*1374 FILLER_14_377
*1375 FILLER_14_38
*1376 FILLER_14_389
*1377 FILLER_14_401
*1378 FILLER_14_413
*1379 FILLER_14_419
*1380 FILLER_14_421
*1381 FILLER_14_433
*1382 FILLER_14_445
*1383 FILLER_14_449
*1384 FILLER_14_46
*1385 FILLER_14_466
*1386 FILLER_14_474
*1387 FILLER_14_477
*1388 FILLER_14_495
*1389 FILLER_14_507
*1390 FILLER_14_519
*1391 FILLER_14_531
*1392 FILLER_14_533
*1393 FILLER_14_545
*1394 FILLER_14_557
*1395 FILLER_14_569
*1396 FILLER_14_581
*1397 FILLER_14_587
*1398 FILLER_14_589
*1399 FILLER_14_601
*1400 FILLER_14_613
*1401 FILLER_14_63
*1402 FILLER_14_75
*1403 FILLER_14_83
*1404 FILLER_14_85
*1405 FILLER_14_97
*1406 FILLER_15_103
*1407 FILLER_15_111
*1408 FILLER_15_113
*1409 FILLER_15_118
*1410 FILLER_15_130
*1411 FILLER_15_142
*1412 FILLER_15_154
*1413 FILLER_15_166
*1414 FILLER_15_169
*1415 FILLER_15_181
*1416 FILLER_15_193
*1417 FILLER_15_205
*1418 FILLER_15_21
*1419 FILLER_15_217
*1420 FILLER_15_223
*1421 FILLER_15_225
*1422 FILLER_15_237
*1423 FILLER_15_249
*1424 FILLER_15_261
*1425 FILLER_15_273
*1426 FILLER_15_279
*1427 FILLER_15_281
*1428 FILLER_15_293
*1429 FILLER_15_3
*1430 FILLER_15_305
*1431 FILLER_15_317
*1432 FILLER_15_329
*1433 FILLER_15_335
*1434 FILLER_15_337
*1435 FILLER_15_349
*1436 FILLER_15_361
*1437 FILLER_15_373
*1438 FILLER_15_385
*1439 FILLER_15_391
*1440 FILLER_15_393
*1441 FILLER_15_405
*1442 FILLER_15_41
*1443 FILLER_15_417
*1444 FILLER_15_423
*1445 FILLER_15_427
*1446 FILLER_15_439
*1447 FILLER_15_446
*1448 FILLER_15_449
*1449 FILLER_15_467
*1450 FILLER_15_487
*1451 FILLER_15_49
*1452 FILLER_15_499
*1453 FILLER_15_503
*1454 FILLER_15_505
*1455 FILLER_15_517
*1456 FILLER_15_529
*1457 FILLER_15_53
*1458 FILLER_15_541
*1459 FILLER_15_553
*1460 FILLER_15_559
*1461 FILLER_15_561
*1462 FILLER_15_57
*1463 FILLER_15_573
*1464 FILLER_15_585
*1465 FILLER_15_597
*1466 FILLER_15_609
*1467 FILLER_15_615
*1468 FILLER_15_617
*1469 FILLER_15_65
*1470 FILLER_15_71
*1471 FILLER_15_79
*1472 FILLER_15_91
*1473 FILLER_16_109
*1474 FILLER_16_127
*1475 FILLER_16_139
*1476 FILLER_16_141
*1477 FILLER_16_153
*1478 FILLER_16_165
*1479 FILLER_16_177
*1480 FILLER_16_189
*1481 FILLER_16_195
*1482 FILLER_16_197
*1483 FILLER_16_205
*1484 FILLER_16_210
*1485 FILLER_16_222
*1486 FILLER_16_234
*1487 FILLER_16_246
*1488 FILLER_16_25
*1489 FILLER_16_253
*1490 FILLER_16_265
*1491 FILLER_16_277
*1492 FILLER_16_289
*1493 FILLER_16_29
*1494 FILLER_16_3
*1495 FILLER_16_301
*1496 FILLER_16_307
*1497 FILLER_16_309
*1498 FILLER_16_321
*1499 FILLER_16_333
*1500 FILLER_16_345
*1501 FILLER_16_357
*1502 FILLER_16_363
*1503 FILLER_16_365
*1504 FILLER_16_377
*1505 FILLER_16_389
*1506 FILLER_16_401
*1507 FILLER_16_418
*1508 FILLER_16_421
*1509 FILLER_16_439
*1510 FILLER_16_445
*1511 FILLER_16_462
*1512 FILLER_16_472
*1513 FILLER_16_477
*1514 FILLER_16_489
*1515 FILLER_16_501
*1516 FILLER_16_513
*1517 FILLER_16_525
*1518 FILLER_16_531
*1519 FILLER_16_533
*1520 FILLER_16_545
*1521 FILLER_16_55
*1522 FILLER_16_557
*1523 FILLER_16_569
*1524 FILLER_16_581
*1525 FILLER_16_587
*1526 FILLER_16_589
*1527 FILLER_16_601
*1528 FILLER_16_613
*1529 FILLER_16_75
*1530 FILLER_16_83
*1531 FILLER_16_85
*1532 FILLER_16_97
*1533 FILLER_17_107
*1534 FILLER_17_111
*1535 FILLER_17_113
*1536 FILLER_17_121
*1537 FILLER_17_13
*1538 FILLER_17_133
*1539 FILLER_17_145
*1540 FILLER_17_157
*1541 FILLER_17_165
*1542 FILLER_17_169
*1543 FILLER_17_181
*1544 FILLER_17_193
*1545 FILLER_17_205
*1546 FILLER_17_217
*1547 FILLER_17_223
*1548 FILLER_17_225
*1549 FILLER_17_237
*1550 FILLER_17_249
*1551 FILLER_17_261
*1552 FILLER_17_273
*1553 FILLER_17_279
*1554 FILLER_17_281
*1555 FILLER_17_293
*1556 FILLER_17_3
*1557 FILLER_17_305
*1558 FILLER_17_317
*1559 FILLER_17_329
*1560 FILLER_17_33
*1561 FILLER_17_335
*1562 FILLER_17_337
*1563 FILLER_17_349
*1564 FILLER_17_361
*1565 FILLER_17_37
*1566 FILLER_17_373
*1567 FILLER_17_385
*1568 FILLER_17_391
*1569 FILLER_17_393
*1570 FILLER_17_408
*1571 FILLER_17_41
*1572 FILLER_17_428
*1573 FILLER_17_438
*1574 FILLER_17_446
*1575 FILLER_17_449
*1576 FILLER_17_454
*1577 FILLER_17_461
*1578 FILLER_17_473
*1579 FILLER_17_485
*1580 FILLER_17_497
*1581 FILLER_17_503
*1582 FILLER_17_505
*1583 FILLER_17_517
*1584 FILLER_17_529
*1585 FILLER_17_53
*1586 FILLER_17_541
*1587 FILLER_17_553
*1588 FILLER_17_559
*1589 FILLER_17_561
*1590 FILLER_17_57
*1591 FILLER_17_573
*1592 FILLER_17_585
*1593 FILLER_17_597
*1594 FILLER_17_609
*1595 FILLER_17_61
*1596 FILLER_17_615
*1597 FILLER_17_617
*1598 FILLER_17_68
*1599 FILLER_17_88
*1600 FILLER_17_9
*1601 FILLER_17_95
*1602 FILLER_18_118
*1603 FILLER_18_130
*1604 FILLER_18_138
*1605 FILLER_18_141
*1606 FILLER_18_15
*1607 FILLER_18_153
*1608 FILLER_18_165
*1609 FILLER_18_177
*1610 FILLER_18_189
*1611 FILLER_18_195
*1612 FILLER_18_197
*1613 FILLER_18_209
*1614 FILLER_18_221
*1615 FILLER_18_233
*1616 FILLER_18_245
*1617 FILLER_18_251
*1618 FILLER_18_253
*1619 FILLER_18_265
*1620 FILLER_18_27
*1621 FILLER_18_277
*1622 FILLER_18_289
*1623 FILLER_18_29
*1624 FILLER_18_3
*1625 FILLER_18_301
*1626 FILLER_18_307
*1627 FILLER_18_309
*1628 FILLER_18_321
*1629 FILLER_18_333
*1630 FILLER_18_34
*1631 FILLER_18_345
*1632 FILLER_18_357
*1633 FILLER_18_363
*1634 FILLER_18_365
*1635 FILLER_18_377
*1636 FILLER_18_389
*1637 FILLER_18_401
*1638 FILLER_18_407
*1639 FILLER_18_411
*1640 FILLER_18_418
*1641 FILLER_18_421
*1642 FILLER_18_433
*1643 FILLER_18_455
*1644 FILLER_18_46
*1645 FILLER_18_467
*1646 FILLER_18_475
*1647 FILLER_18_477
*1648 FILLER_18_489
*1649 FILLER_18_501
*1650 FILLER_18_513
*1651 FILLER_18_525
*1652 FILLER_18_531
*1653 FILLER_18_533
*1654 FILLER_18_545
*1655 FILLER_18_557
*1656 FILLER_18_569
*1657 FILLER_18_58
*1658 FILLER_18_581
*1659 FILLER_18_587
*1660 FILLER_18_589
*1661 FILLER_18_601
*1662 FILLER_18_613
*1663 FILLER_18_82
*1664 FILLER_18_85
*1665 FILLER_18_94
*1666 FILLER_19_100
*1667 FILLER_19_109
*1668 FILLER_19_113
*1669 FILLER_19_122
*1670 FILLER_19_129
*1671 FILLER_19_141
*1672 FILLER_19_15
*1673 FILLER_19_153
*1674 FILLER_19_165
*1675 FILLER_19_169
*1676 FILLER_19_181
*1677 FILLER_19_193
*1678 FILLER_19_205
*1679 FILLER_19_217
*1680 FILLER_19_223
*1681 FILLER_19_225
*1682 FILLER_19_237
*1683 FILLER_19_249
*1684 FILLER_19_261
*1685 FILLER_19_27
*1686 FILLER_19_273
*1687 FILLER_19_279
*1688 FILLER_19_281
*1689 FILLER_19_293
*1690 FILLER_19_3
*1691 FILLER_19_305
*1692 FILLER_19_317
*1693 FILLER_19_329
*1694 FILLER_19_335
*1695 FILLER_19_337