*SPEF "ieee 1481-1999"
*DESIGN "OQPSK_RCOSINE_ALL"
*DATE "11:11:11 Fri 11 11, 1111"
*VENDOR "OpenRCX"
*PROGRAM "Parallel Extraction"
*VERSION "1.0"
*DESIGN_FLOW "NAME_SCOPE LOCAL" "PIN_CAP NONE"
*DIVIDER /
*DELIMITER :
*BUS_DELIMITER []
*T_UNIT 1 NS
*C_UNIT 1 PF
*R_UNIT 1 OHM
*L_UNIT 1 HENRY

*NAME_MAP
*1 ACK
*2 Bit_In
*3 EN
*4 I[0]
*5 I[10]
*6 I[11]
*7 I[12]
*8 I[1]
*9 I[2]
*10 I[3]
*11 I[4]
*12 I[5]
*13 I[6]
*14 I[7]
*15 I[8]
*16 I[9]
*17 Q[0]
*18 Q[10]
*19 Q[11]
*20 Q[12]
*21 Q[1]
*22 Q[2]
*23 Q[3]
*24 Q[4]
*25 Q[5]
*26 Q[6]
*27 Q[7]
*28 Q[8]
*29 Q[9]
*30 REQ_SAMPLE
*31 RST
*32 addI[0]
*33 addI[1]
*34 addI[2]
*35 addI[3]
*36 addI[4]
*37 addI[5]
*38 addQ[0]
*39 addQ[1]
*40 addQ[2]
*41 addQ[3]
*42 addQ[4]
*43 addQ[5]
*46 _0000_
*47 _0001_
*48 _0002_
*49 _0003_
*50 _0004_
*51 _0005_
*52 _0006_
*53 _0007_
*54 _0008_
*55 _0009_
*56 _0010_
*57 _0011_
*58 _0012_
*59 _0013_
*60 _0014_
*61 _0015_
*62 _0016_
*63 _0017_
*64 _0018_
*65 _0019_
*66 _0020_
*67 _0021_
*68 _0022_
*69 _0023_
*70 _0024_
*71 _0025_
*72 _0026_
*73 _0027_
*74 _0028_
*75 _0029_
*76 _0030_
*77 _0031_
*78 _0032_
*79 _0033_
*80 _0034_
*81 _0035_
*82 _0036_
*83 _0037_
*84 _0038_
*85 _0039_
*86 _0040_
*87 _0041_
*88 _0042_
*89 _0043_
*90 _0044_
*91 _0045_
*92 _0046_
*93 _0047_
*94 _0048_
*95 _0049_
*96 _0050_
*97 _0051_
*98 _0052_
*99 _0053_
*100 _0054_
*101 _0055_
*102 _0056_
*103 _0057_
*104 _0058_
*105 _0059_
*106 _0060_
*107 _0061_
*108 _0062_
*109 _0063_
*110 _0064_
*111 _0065_
*112 _0066_
*113 _0067_
*114 _0068_
*115 _0069_
*116 _0070_
*117 _0071_
*118 _0072_
*119 _0073_
*120 _0074_
*121 _0075_
*122 _0076_
*123 _0077_
*124 _0078_
*125 _0079_
*126 _0080_
*127 _0081_
*128 _0082_
*129 _0083_
*130 _0084_
*131 _0085_
*132 _0086_
*133 _0087_
*134 _0088_
*135 _0089_
*136 _0090_
*137 _0091_
*138 _0092_
*139 _0093_
*140 _0094_
*141 _0095_
*142 _0096_
*143 _0097_
*144 _0098_
*145 _0099_
*146 _0100_
*147 _0101_
*148 _0102_
*149 _0103_
*150 _0104_
*151 _0105_
*152 _0106_
*153 _0107_
*154 _0108_
*155 _0109_
*156 _0110_
*157 _0111_
*158 _0112_
*159 _0113_
*160 _0114_
*161 _0115_
*162 _0116_
*163 _0117_
*164 _0118_
*165 _0119_
*166 _0120_
*167 _0121_
*168 _0122_
*169 _0123_
*170 _0124_
*171 _0125_
*172 _0126_
*173 _0127_
*174 _0128_
*175 _0129_
*176 _0130_
*177 _0131_
*178 _0132_
*179 _0133_
*180 _0134_
*181 _0135_
*182 _0136_
*183 _0137_
*184 _0138_
*185 _0139_
*186 _0140_
*187 _0141_
*188 _0142_
*189 _0143_
*190 _0144_
*191 _0145_
*192 _0146_
*193 _0147_
*194 _0148_
*195 _0149_
*196 _0150_
*197 _0151_
*198 _0152_
*199 _0153_
*200 _0154_
*201 _0155_
*202 _0156_
*203 _0157_
*204 _0158_
*205 _0159_
*206 _0160_
*207 _0161_
*208 _0162_
*209 _0163_
*210 _0164_
*211 _0165_
*212 _0166_
*213 _0167_
*214 _0168_
*215 _0169_
*216 _0170_
*217 _0171_
*218 _0172_
*219 _0173_
*220 _0174_
*221 _0175_
*222 _0176_
*223 _0177_
*224 _0178_
*225 _0179_
*226 _0180_
*227 _0181_
*228 _0182_
*229 _0183_
*230 _0184_
*231 _0185_
*232 _0186_
*233 _0187_
*234 _0188_
*235 _0189_
*236 _0190_
*237 _0191_
*238 _0192_
*239 _0193_
*240 _0194_
*241 _0195_
*242 _0196_
*243 _0197_
*244 _0198_
*245 _0199_
*246 _0200_
*247 _0201_
*248 _0202_
*249 _0203_
*250 _0204_
*251 _0205_
*252 _0206_
*253 _0207_
*254 _0208_
*255 _0209_
*256 _0210_
*257 _0211_
*258 _0212_
*259 _0213_
*260 _0214_
*261 _0215_
*262 _0216_
*263 _0217_
*264 _0218_
*265 _0219_
*266 _0220_
*267 _0221_
*268 _0222_
*269 _0223_
*270 _0224_
*271 _0225_
*272 _0226_
*273 _0227_
*274 _0228_
*275 _0229_
*276 _0230_
*277 _0231_
*278 _0232_
*279 _0233_
*280 _0234_
*281 _0235_
*282 _0236_
*283 _0237_
*284 _0238_
*285 _0239_
*286 _0240_
*287 _0241_
*288 _0242_
*289 _0243_
*290 _0244_
*291 _0245_
*292 _0246_
*293 _0247_
*294 _0248_
*295 _0249_
*296 _0250_
*297 _0251_
*298 _0252_
*299 _0253_
*300 _0254_
*301 _0255_
*302 _0256_
*303 _0257_
*304 _0258_
*305 _0259_
*306 _0260_
*307 _0261_
*308 _0262_
*309 _0263_
*310 _0264_
*311 _0265_
*312 _0266_
*313 _0267_
*314 _0268_
*315 _0269_
*316 _0270_
*317 _0271_
*318 _0272_
*319 _0273_
*320 _0274_
*321 _0275_
*322 _0276_
*323 _0277_
*324 _0278_
*325 _0279_
*326 _0280_
*327 _0281_
*328 _0282_
*329 _0283_
*330 _0284_
*331 _0285_
*332 _0286_
*333 _0287_
*334 _0288_
*335 _0289_
*336 _0290_
*337 _0291_
*338 _0292_
*339 _0293_
*340 _0294_
*341 _0295_
*342 _0296_
*343 _0297_
*344 _0298_
*345 _0299_
*346 _0300_
*347 _0301_
*348 _0302_
*349 _0303_
*350 _0304_
*351 _0305_
*352 _0306_
*353 _0307_
*354 _0308_
*355 _0309_
*356 _0310_
*357 _0311_
*358 _0312_
*359 _0313_
*360 _0314_
*361 _0315_
*362 _0316_
*363 _0317_
*364 _0318_
*365 _0319_
*366 _0320_
*367 _0321_
*368 _0322_
*369 _0323_
*370 _0324_
*371 _0325_
*372 _0326_
*373 _0327_
*374 _0328_
*375 _0329_
*376 _0330_
*377 _0331_
*378 _0332_
*379 _0333_
*380 _0334_
*381 _0335_
*382 _0336_
*383 _0337_
*384 _0338_
*385 _0339_
*386 _0340_
*387 _0341_
*388 _0342_
*389 _0343_
*390 _0344_
*391 _0345_
*392 _0346_
*393 _0347_
*394 _0348_
*395 _0349_
*396 _0350_
*397 _0351_
*398 _0352_
*399 _0353_
*400 _0354_
*401 _0355_
*402 _0356_
*403 _0357_
*404 _0358_
*405 _0359_
*406 _0360_
*407 _0361_
*408 _0362_
*409 _0363_
*410 _0364_
*411 _0365_
*412 _0366_
*413 _0367_
*414 _0368_
*415 _0369_
*416 _0370_
*417 _0371_
*418 _0372_
*419 _0373_
*420 _0374_
*421 _0375_
*422 _0376_
*423 _0377_
*424 _0378_
*425 _0379_
*426 _0380_
*427 _0381_
*428 _0382_
*429 _0383_
*430 _0384_
*431 _0385_
*432 _0386_
*433 _0387_
*434 _0388_
*435 _0389_
*436 _0390_
*437 _0391_
*438 _0392_
*439 _0393_
*440 _0394_
*441 _0395_
*442 _0396_
*443 _0397_
*444 _0398_
*445 _0399_
*446 _0400_
*447 _0401_
*448 _0402_
*449 _0403_
*450 _0404_
*451 _0405_
*452 _0406_
*453 _0407_
*454 _0408_
*455 _0409_
*456 _0410_
*457 _0411_
*458 _0412_
*459 _0413_
*460 _0414_
*461 _0415_
*462 _0416_
*463 _0417_
*464 _0418_
*465 _0419_
*466 _0420_
*467 _0421_
*468 _0422_
*469 _0423_
*470 _0424_
*471 _0425_
*472 _0426_
*473 _0427_
*474 _0428_
*475 _0429_
*476 _0430_
*477 _0431_
*478 _0432_
*479 _0433_
*480 _0434_
*481 _0435_
*482 _0436_
*483 _0437_
*484 _0438_
*485 _0439_
*486 _0440_
*487 _0441_
*488 _0442_
*489 _0443_
*490 _0444_
*491 _0445_
*492 _0446_
*493 _0447_
*494 _0448_
*495 _0449_
*496 _0450_
*497 _0451_
*498 _0452_
*499 _0453_
*500 _0454_
*501 _0455_
*502 _0456_
*503 _0457_
*504 _0458_
*505 _0459_
*506 _0460_
*507 _0461_
*508 _0462_
*509 _0463_
*510 _0464_
*511 _0465_
*512 _0466_
*513 _0467_
*514 _0468_
*515 _0469_
*516 _0470_
*517 _0471_
*518 _0472_
*519 _0473_
*520 _0474_
*521 _0475_
*522 _0476_
*523 _0477_
*524 _0478_
*525 _0479_
*526 _0480_
*527 _0481_
*528 _0482_
*529 _0483_
*530 _0484_
*531 _0485_
*532 _0486_
*533 _0487_
*534 _0488_
*535 _0489_
*536 _0490_
*537 _0491_
*538 _0492_
*539 _0493_
*540 _0494_
*541 _0495_
*542 _0496_
*543 _0497_
*544 _0498_
*545 _0499_
*546 _0500_
*547 _0501_
*548 _0502_
*549 _0503_
*550 _0504_
*551 _0505_
*552 _0506_
*553 _0507_
*554 _0508_
*555 _0509_
*556 _0510_
*557 _0511_
*558 _0512_
*559 _0513_
*560 _0514_
*561 _0515_
*562 _0516_
*563 _0517_
*564 _0518_
*565 _0519_
*566 _0520_
*567 _0521_
*568 _0522_
*569 _0523_
*570 _0524_
*571 _0525_
*572 _0526_
*573 _0527_
*574 _0528_
*575 _0529_
*576 _0530_
*577 _0531_
*578 _0532_
*579 _0533_
*580 _0534_
*581 _0535_
*582 _0536_
*583 _0537_
*584 _0538_
*585 _0539_
*586 _0540_
*587 _0541_
*588 _0542_
*589 _0543_
*590 _0544_
*591 _0545_
*592 _0546_
*593 _0547_
*594 _0548_
*595 _0549_
*596 _0550_
*597 _0551_
*598 _0552_
*599 _0553_
*600 _0554_
*601 _0555_
*602 _0556_
*603 _0557_
*604 _0558_
*605 _0559_
*606 _0560_
*607 _0561_
*608 _0562_
*609 _0563_
*610 _0564_
*611 _0565_
*612 _0566_
*613 _0567_
*614 _0568_
*615 _0569_
*616 _0570_
*617 _0571_
*618 _0572_
*619 _0573_
*620 _0574_
*621 _0575_
*622 _0576_
*623 _0577_
*624 _0578_
*625 _0579_
*626 _0580_
*627 _0581_
*628 _0582_
*629 _0583_
*630 _0584_
*631 _0585_
*632 _0586_
*633 _0587_
*634 _0588_
*635 _0589_
*636 _0590_
*637 _0591_
*638 _0592_
*639 _0593_
*640 _0594_
*641 _0595_
*642 _0596_
*643 _0597_
*644 _0598_
*645 _0599_
*646 _0600_
*647 _0601_
*648 _0602_
*649 _0603_
*650 _0604_
*651 _0605_
*652 _0606_
*653 _0607_
*654 _0608_
*655 _0609_
*656 _0610_
*657 _0611_
*658 _0612_
*659 _0613_
*660 _0614_
*661 _0615_
*662 _0616_
*663 _0617_
*664 _0618_
*665 _0619_
*666 _0620_
*667 _0621_
*668 _0622_
*669 _0623_
*670 _0624_
*671 _0625_
*672 _0626_
*673 _0627_
*674 _0628_
*675 _0629_
*676 _0630_
*677 _0631_
*678 _0632_
*679 _0633_
*680 _0634_
*681 _0635_
*682 _0636_
*683 _0637_
*684 _0638_
*685 _0639_
*686 _0640_
*687 _0641_
*688 _0642_
*689 _0643_
*690 _0644_
*691 _0645_
*692 _0646_
*693 _0647_
*694 _0648_
*695 _0649_
*696 _0650_
*697 _0651_
*698 _0652_
*699 _0653_
*700 _0654_
*701 _0655_
*702 _0656_
*703 _0657_
*704 _0658_
*705 _0659_
*706 _0660_
*707 _0661_
*708 _0662_
*709 _0663_
*710 _0664_
*711 _0665_
*712 _0666_
*713 _0667_
*714 _0668_
*715 _0669_
*716 _0670_
*717 _0671_
*718 _0672_
*719 _0673_
*720 _0674_
*721 _0675_
*722 _0676_
*723 _0677_
*724 _0678_
*725 _0679_
*726 _0680_
*727 _0681_
*728 _0682_
*729 _0683_
*730 _0684_
*731 _0685_
*732 _0686_
*733 _0687_
*734 _0688_
*735 _0689_
*736 _0690_
*737 _0691_
*738 _0692_
*739 _0693_
*740 _0694_
*741 _0695_
*742 _0696_
*743 _0697_
*744 _0698_
*745 _0699_
*746 _0700_
*747 _0701_
*748 _0702_
*749 _0703_
*750 _0704_
*751 _0705_
*752 _0706_
*753 _0707_
*754 _0708_
*755 _0709_
*756 _0710_
*757 _0711_
*758 _0712_
*759 _0713_
*760 _0714_
*761 _0715_
*762 _0716_
*763 _0717_
*764 _0718_
*765 _0719_
*766 _0720_
*767 _0721_
*768 _0722_
*769 _0723_
*770 _0724_
*771 _0725_
*772 _0726_
*773 _0727_
*774 _0728_
*775 _0729_
*776 _0730_
*777 _0731_
*778 _0732_
*779 _0733_
*780 _0734_
*781 _0735_
*782 _0736_
*783 _0737_
*784 _0738_
*785 _0739_
*786 _0740_
*787 _0741_
*788 _0742_
*789 _0743_
*790 _0744_
*791 _0745_
*792 _0746_
*793 _0747_
*794 _0748_
*795 _0749_
*796 _0750_
*797 _0751_
*798 _0752_
*799 _0753_
*800 _0754_
*801 _0755_
*802 _0756_
*803 _0757_
*804 _0758_
*805 _0759_
*806 _0760_
*807 _0761_
*808 _0762_
*809 _0763_
*810 _0764_
*811 _0765_
*812 _0766_
*813 _0767_
*814 _0768_
*815 _0769_
*816 _0770_
*817 _0771_
*818 _0772_
*819 _0773_
*820 _0774_
*821 _0775_
*822 _0776_
*823 _0777_
*824 _0778_
*825 _0779_
*826 _0780_
*827 _0781_
*828 _0782_
*829 _0783_
*830 _0784_
*831 _0785_
*832 _0786_
*833 _0787_
*834 _0788_
*835 _0789_
*836 _0790_
*837 _0791_
*838 _0792_
*839 _0793_
*840 _0794_
*841 _0795_
*842 _0796_
*843 _0797_
*844 _0798_
*845 _0799_
*846 _0800_
*847 _0801_
*848 _0802_
*849 _0803_
*850 _0804_
*851 _0805_
*852 _0806_
*853 _0807_
*854 _0808_
*855 _0809_
*856 _0810_
*857 _0811_
*858 _0812_
*859 _0813_
*860 _0814_
*861 _0815_
*862 _0816_
*863 _0817_
*864 _0818_
*865 _0819_
*866 _0820_
*867 _0821_
*868 _0822_
*869 _0823_
*870 _0824_
*871 _0825_
*872 _0826_
*873 _0827_
*874 _0828_
*875 _0829_
*876 _0830_
*877 _0831_
*878 _0832_
*879 _0833_
*880 _0834_
*881 _0835_
*882 _0836_
*883 _0837_
*884 _0838_
*885 _0839_
*886 _0840_
*887 _0841_
*888 _0842_
*889 _0843_
*890 _0844_
*891 _0845_
*892 _0846_
*893 _0847_
*894 _0848_
*895 _0849_
*896 _0850_
*897 _0851_
*898 _0852_
*899 _0853_
*900 _0854_
*901 _0855_
*902 _0856_
*903 _0857_
*904 _0858_
*905 _0859_
*906 _0860_
*907 _0861_
*908 _0862_
*909 _0863_
*910 _0864_
*911 _0865_
*912 _0866_
*913 _0867_
*914 _0868_
*915 _0869_
*916 _0870_
*917 _0871_
*918 _0872_
*919 _0873_
*920 _0874_
*921 _0875_
*922 _0876_
*923 _0877_
*924 _0878_
*925 _0879_
*926 _0880_
*927 _0881_
*928 _0882_
*929 _0883_
*930 _0884_
*931 _0885_
*932 _0886_
*933 _0887_
*934 _0888_
*935 _0889_
*936 _0890_
*937 _0891_
*938 _0892_
*939 _0893_
*940 _0894_
*941 _0895_
*942 _0896_
*943 _0897_
*944 _0898_
*945 _0899_
*946 _0900_
*947 _0901_
*948 _0902_
*949 _0903_
*950 _0904_
*951 _0905_
*952 _0906_
*953 _0907_
*954 _0908_
*955 _0909_
*956 _0910_
*957 _0911_
*958 _0912_
*959 _0913_
*960 _0914_
*961 _0915_
*962 _0916_
*963 _0917_
*964 _0918_
*965 _0919_
*966 _0920_
*967 _0921_
*968 _0922_
*969 _0923_
*970 _0924_
*971 _0925_
*972 _0926_
*973 _0927_
*974 _0928_
*975 _0929_
*976 _0930_
*977 _0931_
*978 _0932_
*979 _0933_
*980 _0934_
*981 _0935_
*982 _0936_
*983 _0937_
*984 _0938_
*985 _0939_
*986 _0940_
*987 _0941_
*988 _0942_
*989 _0943_
*990 _0944_
*991 _0945_
*992 _0946_
*993 _0947_
*994 _0948_
*995 _0949_
*996 _0950_
*997 _0951_
*998 _0952_
*999 _0953_
*1000 _0954_
*1001 _0955_
*1002 _0956_
*1003 _0957_
*1004 _0958_
*1005 _0959_
*1006 _0960_
*1007 _0961_
*1008 _0962_
*1009 _0963_
*1010 _0964_
*1011 _0965_
*1012 _0966_
*1013 _0967_
*1014 _0968_
*1015 _0969_
*1016 _0970_
*1017 _0971_
*1018 _0972_
*1019 _0973_
*1020 _0974_
*1021 _0975_
*1022 _0976_
*1023 _0977_
*1024 _0978_
*1025 _0979_
*1026 _0980_
*1027 _0981_
*1028 _0982_
*1029 _0983_
*1030 _0984_
*1031 _0985_
*1032 _0986_
*1033 _0987_
*1034 _0988_
*1035 _0989_
*1036 gen_sym\.Reg_2M\.data_in
*1037 gen_sym\.Reg_2M\.data_out
*1038 gen_sym\.Reg_2M\.enable
*1039 gen_sym\.Reg_Sym\.data_out\[0\]
*1040 gen_sym\.Reg_Sym\.data_out\[1\]
*1041 mapper\.bit_Q\[1\]
*1042 net1
*1043 net10
*1044 net11
*1045 net12
*1046 net13
*1047 net14
*1048 net15
*1049 net16
*1050 net17
*1051 net18
*1052 net19
*1053 net2
*1054 net20
*1055 net21
*1056 net22
*1057 net23
*1058 net24
*1059 net25
*1060 net26
*1061 net27
*1062 net28
*1063 net29
*1064 net3
*1065 net30
*1066 net31
*1067 net32
*1068 net33
*1069 net34
*1070 net35
*1071 net36
*1072 net37
*1073 net38
*1074 net39
*1075 net4
*1076 net40
*1077 net41
*1078 net42
*1079 net43
*1080 net44
*1081 net45
*1082 net46
*1083 net47
*1084 net48
*1085 net49
*1086 net5
*1087 net50
*1088 net51
*1089 net6
*1090 net7
*1091 net8
*1092 net9
*1093 p_shaping_I\.p_shaping_I\.bit_in
*1094 p_shaping_I\.p_shaping_I\.bit_in_1
*1095 p_shaping_I\.p_shaping_I\.bit_in_2
*1096 p_shaping_I\.p_shaping_I\.counter\[0\]
*1097 p_shaping_I\.p_shaping_I\.counter\[1\]
*1098 p_shaping_I\.p_shaping_I\.ctl_1
*1099 p_shaping_Q\.p_shaping_I\.bit_in
*1100 p_shaping_Q\.p_shaping_I\.bit_in_1
*1101 p_shaping_Q\.p_shaping_I\.bit_in_2
*1102 p_shaping_Q\.p_shaping_I\.counter\[0\]
*1103 p_shaping_Q\.p_shaping_I\.counter\[1\]
*1104 p_shaping_Q\.p_shaping_I\.ctl_1
*1105 ANTENNA__0990__A
*1106 ANTENNA__0993__A
*1107 ANTENNA__0994__A2
*1108 ANTENNA__0994__B1
*1109 ANTENNA__0995__A_N
*1110 ANTENNA__0995__B
*1111 ANTENNA__0997__B1
*1112 ANTENNA__0998__A_N
*1113 ANTENNA__0998__B
*1114 ANTENNA__0999__A2
*1115 ANTENNA__0999__B1
*1116 ANTENNA__1000__A
*1117 ANTENNA__1005__A
*1118 ANTENNA__1009__A
*1119 ANTENNA__1010__A
*1120 ANTENNA__1011__A
*1121 ANTENNA__1013__A
*1122 ANTENNA__1014__B1
*1123 ANTENNA__1016__A
*1124 ANTENNA__1017__A
*1125 ANTENNA__1018__A
*1126 ANTENNA__1021__A
*1127 ANTENNA__1022__B
*1128 ANTENNA__1022__C
*1129 ANTENNA__1023__B
*1130 ANTENNA__1024__A
*1131 ANTENNA__1025__B
*1132 ANTENNA__1026__A
*1133 ANTENNA__1030__A
*1134 ANTENNA__1031__A
*1135 ANTENNA__1032__A
*1136 ANTENNA__1033__A_N
*1137 ANTENNA__1036__S
*1138 ANTENNA__1037__S
*1139 ANTENNA__1040__A
*1140 ANTENNA__1042__S
*1141 ANTENNA__1044__A
*1142 ANTENNA__1044__B
*1143 ANTENNA__1046__A
*1144 ANTENNA__1047__A
*1145 ANTENNA__1047__B
*1146 ANTENNA__1049__B
*1147 ANTENNA__1051__A
*1148 ANTENNA__1054__A
*1149 ANTENNA__1059__A2
*1150 ANTENNA__1059__B1_N
*1151 ANTENNA__1061__A
*1152 ANTENNA__1066__B1
*1153 ANTENNA__1068__B
*1154 ANTENNA__1069__A1
*1155 ANTENNA__1072__A
*1156 ANTENNA__1081__A
*1157 ANTENNA__1082__A2
*1158 ANTENNA__1092__A1
*1159 ANTENNA__1098__B1
*1160 ANTENNA__1101__A
*1161 ANTENNA__1108__A1
*1162 ANTENNA__1110__B
*1163 ANTENNA__1111__B
*1164 ANTENNA__1117__B
*1165 ANTENNA__1118__B1
*1166 ANTENNA__1119__A2
*1167 ANTENNA__1119__B1
*1168 ANTENNA__1122__A1
*1169 ANTENNA__1123__A
*1170 ANTENNA__1128__A
*1171 ANTENNA__1130__A1
*1172 ANTENNA__1133__A
*1173 ANTENNA__1138__A3
*1174 ANTENNA__1139__A1
*1175 ANTENNA__1141__A
*1176 ANTENNA__1141__B
*1177 ANTENNA__1144__A
*1178 ANTENNA__1148__A
*1179 ANTENNA__1150__A
*1180 ANTENNA__1152__A1
*1181 ANTENNA__1153__B1
*1182 ANTENNA__1154__B
*1183 ANTENNA__1159__B2
*1184 ANTENNA__1161__A
*1185 ANTENNA__1167__B
*1186 ANTENNA__1168__B1
*1187 ANTENNA__1169__A
*1188 ANTENNA__1174__B1
*1189 ANTENNA__1175__B
*1190 ANTENNA__1176__A
*1191 ANTENNA__1179__A
*1192 ANTENNA__1186__A
*1193 ANTENNA__1191__A2
*1194 ANTENNA__1195__B1
*1195 ANTENNA__1198__B1
*1196 ANTENNA__1202__A
*1197 ANTENNA__1204__B1
*1198 ANTENNA__1204__B2
*1199 ANTENNA__1205__A
*1200 ANTENNA__1207__A1
*1201 ANTENNA__1207__B2
*1202 ANTENNA__1211__A
*1203 ANTENNA__1212__A1
*1204 ANTENNA__1213__A
*1205 ANTENNA__1216__A
*1206 ANTENNA__1222__C_N
*1207 ANTENNA__1227__A3
*1208 ANTENNA__1238__A1
*1209 ANTENNA__1238__B1
*1210 ANTENNA__1239__A
*1211 ANTENNA__1243__A
*1212 ANTENNA__1247__B
*1213 ANTENNA__1248__A1
*1214 ANTENNA__1259__A1
*1215 ANTENNA__1259__A2
*1216 ANTENNA__1268__A1
*1217 ANTENNA__1269__A
*1218 ANTENNA__1270__A
*1219 ANTENNA__1278__A
*1220 ANTENNA__1281__A
*1221 ANTENNA__1283__C1
*1222 ANTENNA__1285__A1
*1223 ANTENNA__1285__A3
*1224 ANTENNA__1286__A
*1225 ANTENNA__1288__B
*1226 ANTENNA__1291__A1
*1227 ANTENNA__1291__B1
*1228 ANTENNA__1293__A
*1229 ANTENNA__1303__A1
*1230 ANTENNA__1304__A
*1231 ANTENNA__1304__B
*1232 ANTENNA__1305__A2
*1233 ANTENNA__1306__A2
*1234 ANTENNA__1308__A1
*1235 ANTENNA__1311__A1
*1236 ANTENNA__1312__A
*1237 ANTENNA__1325__A
*1238 ANTENNA__1327__A
*1239 ANTENNA__1327__B
*1240 ANTENNA__1333__B1
*1241 ANTENNA__1338__A1
*1242 ANTENNA__1338__A2
*1243 ANTENNA__1339__B1_N
*1244 ANTENNA__1353__A3
*1245 ANTENNA__1354__A1
*1246 ANTENNA__1354__C1
*1247 ANTENNA__1355__C1
*1248 ANTENNA__1368__C
*1249 ANTENNA__1373__A2
*1250 ANTENNA__1373__B1
*1251 ANTENNA__1375__A
*1252 ANTENNA__1385__B
*1253 ANTENNA__1388__A
*1254 ANTENNA__1390__B
*1255 ANTENNA__1394__C1
*1256 ANTENNA__1396__A2
*1257 ANTENNA__1400__C1
*1258 ANTENNA__1404__A
*1259 ANTENNA__1407__A1
*1260 ANTENNA__1413__A2
*1261 ANTENNA__1423__A1
*1262 ANTENNA__1434__A1
*1263 ANTENNA__1435__A1
*1264 ANTENNA__1435__C1
*1265 ANTENNA__1439__A
*1266 ANTENNA__1454__B1
*1267 ANTENNA__1461__A3
*1268 ANTENNA__1465__C1
*1269 ANTENNA__1468__A
*1270 ANTENNA__1469__A
*1271 ANTENNA__1470__A1
*1272 ANTENNA__1483__B1
*1273 ANTENNA__1487__A3
*1274 ANTENNA__1492__A1
*1275 ANTENNA__1492__C1
*1276 ANTENNA__1503__A
*1277 ANTENNA__1513__A
*1278 ANTENNA__1524__A
*1279 ANTENNA__1531__A
*1280 ANTENNA__1535__A
*1281 ANTENNA__1536__A1
*1282 ANTENNA__1540__A
*1283 ANTENNA__1546__B
*1284 ANTENNA__1558__B_N
*1285 ANTENNA__1563__A
*1286 ANTENNA__1567__A3
*1287 ANTENNA__1568__B1_N
*1288 ANTENNA__1574__A1_N
*1289 ANTENNA__1577__A
*1290 ANTENNA__1582__B1
*1291 ANTENNA__1605__A1
*1292 ANTENNA__1605__A3
*1293 ANTENNA__1608__B1
*1294 ANTENNA__1612__A
*1295 ANTENNA__1617__A
*1296 ANTENNA__1619__C1
*1297 ANTENNA__1620__A
*1298 ANTENNA__1630__B1
*1299 ANTENNA__1632__A
*1300 ANTENNA__1635__B1
*1301 ANTENNA__1637__A
*1302 ANTENNA__1638__A1
*1303 ANTENNA__1645__A
*1304 ANTENNA__1646__C1
*1305 ANTENNA__1651__A1
*1306 ANTENNA__1654__A1
*1307 ANTENNA__1655__A1
*1308 ANTENNA__1655__B1
*1309 ANTENNA__1660__A2
*1310 ANTENNA__1660__B1
*1311 ANTENNA__1661__B
*1312 ANTENNA__1661__C
*1313 ANTENNA__1662__A
*1314 ANTENNA__1664__A
*1315 ANTENNA__1665__A1
*1316 ANTENNA__1669__A
*1317 ANTENNA__1681__C1
*1318 ANTENNA__1689__A
*1319 ANTENNA__1694__A
*1320 ANTENNA__1713__C
*1321 ANTENNA__1715__A1
*1322 ANTENNA__1719__B1
*1323 ANTENNA__1720__B
*1324 ANTENNA__1722__B1
*1325 ANTENNA__1724__A
*1326 ANTENNA__1734__A
*1327 ANTENNA__1737__B1
*1328 ANTENNA__1747__D_N
*1329 ANTENNA__1749__A
*1330 ANTENNA__1751__A
*1331 ANTENNA__1754__A3
*1332 ANTENNA__1759__B
*1333 ANTENNA__1764__A1
*1334 ANTENNA__1764__A2
*1335 ANTENNA__1773__A
*1336 ANTENNA__1776__A
*1337 ANTENNA__1792__A2
*1338 ANTENNA__1795__B2
*1339 ANTENNA__1800__A_N
*1340 ANTENNA__1803__C_N
*1341 ANTENNA__1828__A
*1342 ANTENNA__1838__A1
*1343 ANTENNA__1844__B2
*1344 ANTENNA__1855__A
*1345 ANTENNA__1862__A
*1346 ANTENNA__1863__C
*1347 ANTENNA__1873__A
*1348 ANTENNA__1875__A1
*1349 ANTENNA__1877__C1
*1350 ANTENNA__1884__A1
*1351 ANTENNA__1894__C1
*1352 ANTENNA__1906__A1
*1353 ANTENNA__1923__A
*1354 ANTENNA__1924__A1
*1355 ANTENNA__1939__A
*1356 ANTENNA__1940__A1
*1357 ANTENNA__1942__A2
*1358 ANTENNA__1943__B2
*1359 ANTENNA__1946__B1
*1360 ANTENNA__1956__A1
*1361 ANTENNA__1971__A1
*1362 ANTENNA__1972__A
*1363 ANTENNA__1975__B
*1364 ANTENNA__1977__B
*1365 ANTENNA__1979__A
*1366 ANTENNA__1979__B
*1367 ANTENNA__1980__A
*1368 ANTENNA__1980__C
*1369 ANTENNA__1982__B
*1370 ANTENNA__1984__A1
*1371 ANTENNA__1984__B2
*1372 ANTENNA__1985__B
*1373 ANTENNA__1986__A2
*1374 ANTENNA__1991__A1
*1375 ANTENNA__1992__A
*1376 ANTENNA__1993__A
*1377 ANTENNA__1994__A1
*1378 ANTENNA__1995__B
*1379 ANTENNA__1996__A
*1380 ANTENNA__1997__A1
*1381 ANTENNA__1997__A2
*1382 ANTENNA__1997__A3
*1383 ANTENNA__2000__C
*1384 ANTENNA__2001__A2
*1385 ANTENNA__2005__A1
*1386 ANTENNA__2006__A
*1387 ANTENNA__2007__A2
*1388 ANTENNA__2008__A
*1389 ANTENNA__2009__A
*1390 ANTENNA__2012__CLK
*1391 ANTENNA__2013__CLK
*1392 ANTENNA__2016__CLK
*1393 ANTENNA__2016__RESET_B
*1394 ANTENNA__2024__CLK
*1395 ANTENNA__2024__RESET_B
*1396 ANTENNA__2027__SET_B
*1397 ANTENNA__2028__RESET_B
*1398 ANTENNA__2029__RESET_B
*1399 ANTENNA__2030__SET_B
*1400 ANTENNA__2031__SET_B
*1401 ANTENNA__2033__D
*1402 ANTENNA__2034__CLK
*1403 ANTENNA__2034__RESET_B
*1404 ANTENNA__2035__CLK
*1405 ANTENNA__2035__D
*1406 ANTENNA__2035__RESET_B
*1407 ANTENNA_fanout44_A
*1408 ANTENNA_fanout45_A
*1409 ANTENNA_fanout46_A
*1410 ANTENNA_fanout47_A
*1411 ANTENNA_fanout48_A
*1412 ANTENNA_fanout49_A
*1413 ANTENNA_fanout50_A
*1414 ANTENNA_fanout51_A
*1415 ANTENNA_input1_A
*1416 ANTENNA_input2_A
*1417 ANTENNA_input3_A
*1418 ANTENNA_input4_A
*1419 ANTENNA_input5_A
*1420 ANTENNA_output10_A
*1421 ANTENNA_output13_A
*1422 ANTENNA_output14_A
*1423 ANTENNA_output15_A
*1424 ANTENNA_output16_A
*1425 ANTENNA_output17_A
*1426 ANTENNA_output18_A
*1427 ANTENNA_output19_A
*1428 ANTENNA_output21_A
*1429 ANTENNA_output22_A
*1430 ANTENNA_output23_A
*1431 ANTENNA_output24_A
*1432 ANTENNA_output25_A
*1433 ANTENNA_output26_A
*1434 ANTENNA_output27_A
*1435 ANTENNA_output28_A
*1436 ANTENNA_output29_A
*1437 ANTENNA_output30_A
*1438 ANTENNA_output31_A
*1439 ANTENNA_output32_A
*1440 ANTENNA_output33_A
*1441 ANTENNA_output34_A
*1442 ANTENNA_output35_A
*1443 ANTENNA_output36_A
*1444 ANTENNA_output37_A
*1445 ANTENNA_output38_A
*1446 ANTENNA_output39_A
*1447 ANTENNA_output40_A
*1448 ANTENNA_output41_A
*1449 ANTENNA_output42_A
*1450 ANTENNA_output43_A
*1451 ANTENNA_output6_A
*1452 ANTENNA_output7_A
*1453 ANTENNA_output8_A
*1454 ANTENNA_output9_A
*1455 FILLER_0_109
*1456 FILLER_0_113
*1457 FILLER_0_119
*1458 FILLER_0_125
*1459 FILLER_0_137
*1460 FILLER_0_141
*1461 FILLER_0_15
*1462 FILLER_0_153
*1463 FILLER_0_165
*1464 FILLER_0_169
*1465 FILLER_0_175
*1466 FILLER_0_181
*1467 FILLER_0_193
*1468 FILLER_0_197
*1469 FILLER_0_209
*1470 FILLER_0_221
*1471 FILLER_0_225
*1472 FILLER_0_231
*1473 FILLER_0_243
*1474 FILLER_0_251
*1475 FILLER_0_253
*1476 FILLER_0_265
*1477 FILLER_0_27
*1478 FILLER_0_277
*1479 FILLER_0_281
*1480 FILLER_0_287
*1481 FILLER_0_29
*1482 FILLER_0_293
*1483 FILLER_0_3
*1484 FILLER_0_305
*1485 FILLER_0_309
*1486 FILLER_0_321
*1487 FILLER_0_333
*1488 FILLER_0_337
*1489 FILLER_0_345
*1490 FILLER_0_350
*1491 FILLER_0_362
*1492 FILLER_0_365
*1493 FILLER_0_377
*1494 FILLER_0_389
*1495 FILLER_0_393
*1496 FILLER_0_398
*1497 FILLER_0_406
*1498 FILLER_0_41
*1499 FILLER_0_418
*1500 FILLER_0_421
*1501 FILLER_0_433
*1502 FILLER_0_445
*1503 FILLER_0_449
*1504 FILLER_0_457
*1505 FILLER_0_461
*1506 FILLER_0_469
*1507 FILLER_0_475
*1508 FILLER_0_477
*1509 FILLER_0_489
*1510 FILLER_0_501
*1511 FILLER_0_505
*1512 FILLER_0_513
*1513 FILLER_0_517
*1514 FILLER_0_525
*1515 FILLER_0_531
*1516 FILLER_0_533
*1517 FILLER_0_54
*1518 FILLER_0_545
*1519 FILLER_0_557
*1520 FILLER_0_561
*1521 FILLER_0_57
*1522 FILLER_0_573
*1523 FILLER_0_581
*1524 FILLER_0_586
*1525 FILLER_0_589
*1526 FILLER_0_595
*1527 FILLER_0_607
*1528 FILLER_0_61
*1529 FILLER_0_611
*1530 FILLER_0_614
*1531 FILLER_0_617
*1532 FILLER_0_623
*1533 FILLER_0_73
*1534 FILLER_0_81
*1535 FILLER_0_85
*1536 FILLER_0_9
*1537 FILLER_0_97
*1538 FILLER_100_109
*1539 FILLER_100_11
*1540 FILLER_100_121
*1541 FILLER_100_133
*1542 FILLER_100_139
*1543 FILLER_100_141
*1544 FILLER_100_153
*1545 FILLER_100_165
*1546 FILLER_100_17
*1547 FILLER_100_177
*1548 FILLER_100_189
*1549 FILLER_100_195
*1550 FILLER_100_197
*1551 FILLER_100_209
*1552 FILLER_100_221
*1553 FILLER_100_233
*1554 FILLER_100_245
*1555 FILLER_100_25
*1556 FILLER_100_251
*1557 FILLER_100_253
*1558 FILLER_100_265
*1559 FILLER_100_277
*1560 FILLER_100_289
*1561 FILLER_100_29
*1562 FILLER_100_3
*1563 FILLER_100_301
*1564 FILLER_100_307
*1565 FILLER_100_309
*1566 FILLER_100_321
*1567 FILLER_100_333
*1568 FILLER_100_345
*1569 FILLER_100_357
*1570 FILLER_100_363
*1571 FILLER_100_365
*1572 FILLER_100_372
*1573 FILLER_100_378
*1574 FILLER_100_390
*1575 FILLER_100_402
*1576 FILLER_100_41
*1577 FILLER_100_414
*1578 FILLER_100_421
*1579 FILLER_100_433
*1580 FILLER_100_445
*1581 FILLER_100_457
*1582 FILLER_100_469
*1583 FILLER_100_475
*1584 FILLER_100_477
*1585 FILLER_100_489
*1586 FILLER_100_501
*1587 FILLER_100_513
*1588 FILLER_100_525
*1589 FILLER_100_53
*1590 FILLER_100_531
*1591 FILLER_100_533
*1592 FILLER_100_545
*1593 FILLER_100_557
*1594 FILLER_100_569
*1595 FILLER_100_581
*1596 FILLER_100_587
*1597 FILLER_100_589
*1598 FILLER_100_601
*1599 FILLER_100_615
*1600 FILLER_100_623
*1601 FILLER_100_65
*1602 FILLER_100_77
*1603 FILLER_100_83
*1604 FILLER_100_85
*1605 FILLER_100_97
*1606 FILLER_101_109
*1607 FILLER_101_113
*1608 FILLER_101_125
*1609 FILLER_101_133
*1610 FILLER_101_138
*1611 FILLER_101_141
*1612 FILLER_101_147
*1613 FILLER_101_159
*1614 FILLER_101_167
*1615 FILLER_101_169
*1616 FILLER_101_181
*1617 FILLER_101_193
*1618 FILLER_101_197
*1619 FILLER_101_203
*1620 FILLER_101_209
*1621 FILLER_101_21
*1622 FILLER_101_221
*1623 FILLER_101_225
*1624 FILLER_101_237
*1625 FILLER_101_249
*1626 FILLER_101_253
*1627 FILLER_101_259
*1628 FILLER_101_265
*1629 FILLER_101_27
*1630 FILLER_101_277
*1631 FILLER_101_281
*1632 FILLER_101_29
*1633 FILLER_101_293
*1634 FILLER_101_3
*1635 FILLER_101_305
*1636 FILLER_101_309
*1637 FILLER_101_314
*1638 FILLER_101_322
*1639 FILLER_101_334
*1640 FILLER_101_337
*1641 FILLER_101_349
*1642 FILLER_101_361
*1643 FILLER_101_365
*1644 FILLER_101_373
*1645 FILLER_101_378
*1646 FILLER_101_390
*1647 FILLER_101_393
*1648 FILLER_101_405
*1649 FILLER_101_41
*1650 FILLER_101_417
*1651 FILLER_101_421
*1652 FILLER_101_429
*1653 FILLER_101_433
*1654 FILLER_101_441
*1655 FILLER_101_447
*1656 FILLER_101_449
*1657 FILLER_101_461
*1658 FILLER_101_473
*1659 FILLER_101_477
*1660 FILLER_101_485
*1661 FILLER_101_489
*1662 FILLER_101_497
*1663 FILLER_101_503
*1664 FILLER_101_505
*1665 FILLER_101_517
*1666 FILLER_101_529
*1667 FILLER_101_53
*1668 FILLER_101_533
*1669 FILLER_101_545
*1670 FILLER_101_553
*1671 FILLER_101_558
*1672 FILLER_101_561
*1673 FILLER_101_567
*1674 FILLER_101_57
*1675 FILLER_101_579
*1676 FILLER_101_587
*1677 FILLER_101_589
*1678 FILLER_101_601
*1679 FILLER_101_609
*1680 FILLER_101_614
*1681 FILLER_101_617
*1682 FILLER_101_623
*1683 FILLER_101_69
*1684 FILLER_101_81
*1685 FILLER_101_85
*1686 FILLER_101_9
*1687 FILLER_101_91
*1688 FILLER_101_97
*1689 FILLER_10_109
*1690 FILLER_10_121
*1691 FILLER_10_133
*1692 FILLER_10_139
*1693 FILLER_10_141
*1694 FILLER_10_15
*1695 FILLER_10_153
*1696 FILLER_10_165
*1697 FILLER_10_177
*1698 FILLER_10_189
*1699 FILLER_10_195
*1700 FILLER_10_197
*1701 FILLER_10_209
*1702 FILLER_10_221
*1703 FILLER_10_233
*1704 FILLER_10_245
*1705 FILLER_10_251
*1706 FILLER_10_253
*1707 FILLER_10_265
*1708 FILLER_10_27
*1709 FILLER_10_277
*1710 FILLER_10_289
*1711 FILLER_10_29
*1712 FILLER_10_295
*1713 FILLER_10_3
*1714 FILLER_10_307
*1715 FILLER_10_309
*1716 FILLER_10_319
*1717 FILLER_10_331
*1718 FILLER_10_343
*1719 FILLER_10_351
*1720 FILLER_10_360
*1721 FILLER_10_365
*1722 FILLER_10_377
*1723 FILLER_10_389
*1724 FILLER_10_401
*1725 FILLER_10_41
*1726 FILLER_10_413
*1727 FILLER_10_419
*1728 FILLER_10_421
*1729 FILLER_10_433
*1730 FILLER_10_445
*1731 FILLER_10_457
*1732 FILLER_10_469
*1733 FILLER_10_475
*1734 FILLER_10_477
*1735 FILLER_10_489
*1736 FILLER_10_501
*1737 FILLER_10_513
*1738 FILLER_10_525
*1739 FILLER_10_53
*1740 FILLER_10_531
*1741 FILLER_10_533
*1742 FILLER_10_545
*1743 FILLER_10_557
*1744 FILLER_10_569
*1745 FILLER_10_581
*1746 FILLER_10_587
*1747 FILLER_10_589
*1748 FILLER_10_601
*1749 FILLER_10_613
*1750 FILLER_10_65
*1751 FILLER_10_77
*1752 FILLER_10_83
*1753 FILLER_10_85
*1754 FILLER_10_97
*1755 FILLER_11_105
*1756 FILLER_11_111
*1757 FILLER_11_113
*1758 FILLER_11_125
*1759 FILLER_11_137
*1760 FILLER_11_149
*1761 FILLER_11_15
*1762 FILLER_11_161
*1763 FILLER_11_167
*1764 FILLER_11_169
*1765 FILLER_11_181
*1766 FILLER_11_193
*1767 FILLER_11_205
*1768 FILLER_11_217
*1769 FILLER_11_223
*1770 FILLER_11_225
*1771 FILLER_11_237
*1772 FILLER_11_249
*1773 FILLER_11_261
*1774 FILLER_11_27
*1775 FILLER_11_273
*1776 FILLER_11_279
*1777 FILLER_11_281
*1778 FILLER_11_287
*1779 FILLER_11_293
*1780 FILLER_11_3
*1781 FILLER_11_317
*1782 FILLER_11_328
*1783 FILLER_11_337
*1784 FILLER_11_347
*1785 FILLER_11_357
*1786 FILLER_11_371
*1787 FILLER_11_39
*1788 FILLER_11_390
*1789 FILLER_11_393
*1790 FILLER_11_402
*1791 FILLER_11_414
*1792 FILLER_11_426
*1793 FILLER_11_438
*1794 FILLER_11_446
*1795 FILLER_11_449
*1796 FILLER_11_461
*1797 FILLER_11_473
*1798 FILLER_11_485
*1799 FILLER_11_497
*1800 FILLER_11_503
*1801 FILLER_11_505
*1802 FILLER_11_51
*1803 FILLER_11_517
*1804 FILLER_11_529
*1805 FILLER_11_541
*1806 FILLER_11_55
*1807 FILLER_11_553
*1808 FILLER_11_559
*1809 FILLER_11_561
*1810 FILLER_11_57
*1811 FILLER_11_573
*1812 FILLER_11_585
*1813 FILLER_11_597
*1814 FILLER_11_609
*1815 FILLER_11_615
*1816 FILLER_11_617
*1817 FILLER_11_69
*1818 FILLER_11_81
*1819 FILLER_11_93
*1820 FILLER_12_109
*1821 FILLER_12_121
*1822 FILLER_12_133
*1823 FILLER_12_139
*1824 FILLER_12_141
*1825 FILLER_12_15
*1826 FILLER_12_153
*1827 FILLER_12_165
*1828 FILLER_12_177
*1829 FILLER_12_189
*1830 FILLER_12_195
*1831 FILLER_12_197
*1832 FILLER_12_209
*1833 FILLER_12_221
*1834 FILLER_12_233
*1835 FILLER_12_245
*1836 FILLER_12_251
*1837 FILLER_12_253
*1838 FILLER_12_265
*1839 FILLER_12_27
*1840 FILLER_12_273
*1841 FILLER_12_278
*1842 FILLER_12_285