*SPEF "ieee 1481-1999"
*DESIGN "OQPSK_PS_RCOSINE2"
*DATE "11:11:11 Fri 11 11, 1111"
*VENDOR "OpenRCX"
*PROGRAM "Parallel Extraction"
*VERSION "1.0"
*DESIGN_FLOW "NAME_SCOPE LOCAL" "PIN_CAP NONE"
*DIVIDER /
*DELIMITER :
*BUS_DELIMITER []
*T_UNIT 1 NS
*C_UNIT 1 PF
*R_UNIT 1 OHM
*L_UNIT 1 HENRY

*NAME_MAP
*1 BitIn
*2 CLK
*3 EN
*4 I[0]
*5 I[10]
*6 I[11]
*7 I[12]
*8 I[1]
*9 I[2]
*10 I[3]
*11 I[4]
*12 I[5]
*13 I[6]
*14 I[7]
*15 I[8]
*16 I[9]
*17 Q[0]
*18 Q[10]
*19 Q[11]
*20 Q[12]
*21 Q[1]
*22 Q[2]
*23 Q[3]
*24 Q[4]
*25 Q[5]
*26 Q[6]
*27 Q[7]
*28 Q[8]
*29 Q[9]
*30 RST
*31 addI[0]
*32 addI[1]
*33 addI[2]
*34 addI[3]
*35 addI[4]
*36 addI[5]
*37 addQ[0]
*38 addQ[1]
*39 addQ[2]
*40 addQ[3]
*41 addQ[4]
*42 addQ[5]
*45 Reg_Delay_Q\.In
*46 Reg_Delay_Q\.Out
*47 _0000_
*48 _0001_
*49 _0002_
*50 _0003_
*51 _0004_
*52 _0005_
*53 _0006_
*54 _0007_
*55 _0008_
*56 _0009_
*57 _0010_
*58 _0011_
*59 _0012_
*60 _0013_
*61 _0014_
*62 _0015_
*63 _0016_
*64 _0017_
*65 _0018_
*66 _0019_
*67 _0020_
*68 _0021_
*69 _0022_
*70 _0023_
*71 _0024_
*72 _0025_
*73 _0026_
*74 _0027_
*75 _0028_
*76 _0029_
*77 _0030_
*78 _0031_
*79 _0032_
*80 _0033_
*81 _0034_
*82 _0035_
*83 _0036_
*84 _0037_
*85 _0038_
*86 _0039_
*87 _0040_
*88 _0041_
*89 _0042_
*90 _0043_
*91 _0044_
*92 _0045_
*93 _0046_
*94 _0047_
*95 _0048_
*96 _0049_
*97 _0050_
*98 _0051_
*99 _0052_
*100 _0053_
*101 _0054_
*102 _0055_
*103 _0056_
*104 _0057_
*105 _0058_
*106 _0059_
*107 _0060_
*108 _0061_
*109 _0062_
*110 _0063_
*111 _0064_
*112 _0065_
*113 _0066_
*114 _0067_
*115 _0068_
*116 _0069_
*117 _0070_
*118 _0071_
*119 _0072_
*120 _0073_
*121 _0074_
*122 _0075_
*123 _0076_
*124 _0077_
*125 _0078_
*126 _0079_
*127 _0080_
*128 _0081_
*129 _0082_
*130 _0083_
*131 _0084_
*132 _0085_
*133 _0086_
*134 _0087_
*135 _0088_
*136 _0089_
*137 _0090_
*138 _0091_
*139 _0092_
*140 _0093_
*141 _0094_
*142 _0095_
*143 _0096_
*144 _0097_
*145 _0098_
*146 _0099_
*147 _0100_
*148 _0101_
*149 _0102_
*150 _0103_
*151 _0104_
*152 _0105_
*153 _0106_
*154 _0107_
*155 _0108_
*156 _0109_
*157 _0110_
*158 _0111_
*159 _0112_
*160 _0113_
*161 _0114_
*162 _0115_
*163 _0116_
*164 _0117_
*165 _0118_
*166 _0119_
*167 _0120_
*168 _0121_
*169 _0122_
*170 _0123_
*171 _0124_
*172 _0125_
*173 _0126_
*174 _0127_
*175 _0128_
*176 _0129_
*177 _0130_
*178 _0131_
*179 _0132_
*180 _0133_
*181 _0134_
*182 _0135_
*183 _0136_
*184 _0137_
*185 _0138_
*186 _0139_
*187 _0140_
*188 _0141_
*189 _0142_
*190 _0143_
*191 _0144_
*192 _0145_
*193 _0146_
*194 _0147_
*195 _0148_
*196 _0149_
*197 _0150_
*198 _0151_
*199 _0152_
*200 _0153_
*201 _0154_
*202 _0155_
*203 _0156_
*204 _0157_
*205 _0158_
*206 _0159_
*207 _0160_
*208 _0161_
*209 _0162_
*210 _0163_
*211 _0164_
*212 _0165_
*213 _0166_
*214 _0167_
*215 _0168_
*216 _0169_
*217 _0170_
*218 _0171_
*219 _0172_
*220 _0173_
*221 _0174_
*222 _0175_
*223 _0176_
*224 _0177_
*225 _0178_
*226 _0179_
*227 _0180_
*228 _0181_
*229 _0182_
*230 _0183_
*231 _0184_
*232 _0185_
*233 _0186_
*234 _0187_
*235 _0188_
*236 _0189_
*237 _0190_
*238 _0191_
*239 _0192_
*240 _0193_
*241 _0194_
*242 _0195_
*243 _0196_
*244 _0197_
*245 _0198_
*246 _0199_
*247 _0200_
*248 _0201_
*249 _0202_
*250 _0203_
*251 _0204_
*252 _0205_
*253 _0206_
*254 _0207_
*255 _0208_
*256 _0209_
*257 _0210_
*258 _0211_
*259 _0212_
*260 _0213_
*261 _0214_
*262 _0215_
*263 _0216_
*264 _0217_
*265 _0218_
*266 _0219_
*267 _0220_
*268 _0221_
*269 _0222_
*270 _0223_
*271 _0224_
*272 _0225_
*273 _0226_
*274 _0227_
*275 _0228_
*276 _0229_
*277 _0230_
*278 _0231_
*279 _0232_
*280 _0233_
*281 _0234_
*282 _0235_
*283 _0236_
*284 _0237_
*285 _0238_
*286 _0239_
*287 _0240_
*288 _0241_
*289 _0242_
*290 _0243_
*291 _0244_
*292 _0245_
*293 _0246_
*294 _0247_
*295 _0248_
*296 _0249_
*297 _0250_
*298 _0251_
*299 _0252_
*300 _0253_
*301 _0254_
*302 _0255_
*303 _0256_
*304 _0257_
*305 _0258_
*306 _0259_
*307 _0260_
*308 _0261_
*309 _0262_
*310 _0263_
*311 _0264_
*312 _0265_
*313 _0266_
*314 _0267_
*315 _0268_
*316 _0269_
*317 _0270_
*318 _0271_
*319 _0272_
*320 _0273_
*321 _0274_
*322 _0275_
*323 _0276_
*324 _0277_
*325 _0278_
*326 _0279_
*327 _0280_
*328 _0281_
*329 _0282_
*330 _0283_
*331 _0284_
*332 _0285_
*333 _0286_
*334 _0287_
*335 _0288_
*336 _0289_
*337 _0290_
*338 _0291_
*339 _0292_
*340 _0293_
*341 _0294_
*342 _0295_
*343 _0296_
*344 _0297_
*345 _0298_
*346 _0299_
*347 _0300_
*348 _0301_
*349 _0302_
*350 _0303_
*351 _0304_
*352 _0305_
*353 _0306_
*354 _0307_
*355 _0308_
*356 _0309_
*357 _0310_
*358 _0311_
*359 _0312_
*360 _0313_
*361 _0314_
*362 _0315_
*363 _0316_
*364 _0317_
*365 _0318_
*366 _0319_
*367 _0320_
*368 _0321_
*369 _0322_
*370 _0323_
*371 _0324_
*372 _0325_
*373 _0326_
*374 _0327_
*375 _0328_
*376 _0329_
*377 _0330_
*378 _0331_
*379 _0332_
*380 _0333_
*381 _0334_
*382 _0335_
*383 _0336_
*384 _0337_
*385 _0338_
*386 _0339_
*387 _0340_
*388 _0341_
*389 _0342_
*390 _0343_
*391 _0344_
*392 _0345_
*393 _0346_
*394 _0347_
*395 _0348_
*396 _0349_
*397 _0350_
*398 _0351_
*399 _0352_
*400 _0353_
*401 _0354_
*402 _0355_
*403 _0356_
*404 _0357_
*405 _0358_
*406 _0359_
*407 _0360_
*408 _0361_
*409 _0362_
*410 _0363_
*411 _0364_
*412 _0365_
*413 _0366_
*414 _0367_
*415 _0368_
*416 _0369_
*417 _0370_
*418 _0371_
*419 _0372_
*420 _0373_
*421 _0374_
*422 _0375_
*423 _0376_
*424 _0377_
*425 _0378_
*426 _0379_
*427 _0380_
*428 _0381_
*429 _0382_
*430 _0383_
*431 _0384_
*432 _0385_
*433 _0386_
*434 _0387_
*435 _0388_
*436 _0389_
*437 _0390_
*438 _0391_
*439 _0392_
*440 _0393_
*441 _0394_
*442 _0395_
*443 _0396_
*444 _0397_
*445 _0398_
*446 _0399_
*447 _0400_
*448 _0401_
*449 _0402_
*450 _0403_
*451 _0404_
*452 _0405_
*453 _0406_
*454 _0407_
*455 _0408_
*456 _0409_
*457 _0410_
*458 _0411_
*459 _0412_
*460 _0413_
*461 _0414_
*462 _0415_
*463 _0416_
*464 _0417_
*465 _0418_
*466 _0419_
*467 _0420_
*468 _0421_
*469 _0422_
*470 _0423_
*471 _0424_
*472 _0425_
*473 _0426_
*474 _0427_
*475 _0428_
*476 _0429_
*477 _0430_
*478 _0431_
*479 _0432_
*480 _0433_
*481 _0434_
*482 _0435_
*483 _0436_
*484 _0437_
*485 _0438_
*486 _0439_
*487 _0440_
*488 _0441_
*489 _0442_
*490 _0443_
*491 _0444_
*492 _0445_
*493 _0446_
*494 _0447_
*495 _0448_
*496 _0449_
*497 _0450_
*498 _0451_
*499 _0452_
*500 _0453_
*501 _0454_
*502 _0455_
*503 _0456_
*504 _0457_
*505 _0458_
*506 _0459_
*507 _0460_
*508 _0461_
*509 _0462_
*510 _0463_
*511 _0464_
*512 _0465_
*513 _0466_
*514 _0467_
*515 _0468_
*516 _0469_
*517 _0470_
*518 _0471_
*519 _0472_
*520 _0473_
*521 _0474_
*522 _0475_
*523 _0476_
*524 _0477_
*525 _0478_
*526 _0479_
*527 _0480_
*528 _0481_
*529 _0482_
*530 _0483_
*531 _0484_
*532 _0485_
*533 _0486_
*534 _0487_
*535 _0488_
*536 _0489_
*537 _0490_
*538 _0491_
*539 _0492_
*540 _0493_
*541 _0494_
*542 _0495_
*543 _0496_
*544 _0497_
*545 _0498_
*546 _0499_
*547 _0500_
*548 _0501_
*549 _0502_
*550 _0503_
*551 _0504_
*552 _0505_
*553 _0506_
*554 _0507_
*555 _0508_
*556 _0509_
*557 _0510_
*558 _0511_
*559 _0512_
*560 _0513_
*561 _0514_
*562 _0515_
*563 _0516_
*564 _0517_
*565 _0518_
*566 _0519_
*567 _0520_
*568 _0521_
*569 _0522_
*570 _0523_
*571 _0524_
*572 _0525_
*573 _0526_
*574 _0527_
*575 _0528_
*576 _0529_
*577 _0530_
*578 _0531_
*579 _0532_
*580 _0533_
*581 _0534_
*582 _0535_
*583 _0536_
*584 _0537_
*585 _0538_
*586 _0539_
*587 _0540_
*588 _0541_
*589 _0542_
*590 _0543_
*591 _0544_
*592 _0545_
*593 _0546_
*594 _0547_
*595 _0548_
*596 _0549_
*597 _0550_
*598 _0551_
*599 _0552_
*600 _0553_
*601 _0554_
*602 _0555_
*603 _0556_
*604 _0557_
*605 _0558_
*606 _0559_
*607 _0560_
*608 _0561_
*609 _0562_
*610 _0563_
*611 _0564_
*612 _0565_
*613 _0566_
*614 _0567_
*615 _0568_
*616 _0569_
*617 _0570_
*618 _0571_
*619 _0572_
*620 _0573_
*621 _0574_
*622 _0575_
*623 _0576_
*624 _0577_
*625 _0578_
*626 _0579_
*627 _0580_
*628 _0581_
*629 _0582_
*630 _0583_
*631 _0584_
*632 _0585_
*633 _0586_
*634 _0587_
*635 _0588_
*636 _0589_
*637 _0590_
*638 _0591_
*639 _0592_
*640 _0593_
*641 _0594_
*642 _0595_
*643 _0596_
*644 _0597_
*645 _0598_
*646 _0599_
*647 _0600_
*648 _0601_
*649 _0602_
*650 _0603_
*651 _0604_
*652 _0605_
*653 _0606_
*654 _0607_
*655 _0608_
*656 _0609_
*657 _0610_
*658 _0611_
*659 _0612_
*660 _0613_
*661 _0614_
*662 _0615_
*663 _0616_
*664 _0617_
*665 _0618_
*666 _0619_
*667 _0620_
*668 _0621_
*669 _0622_
*670 _0623_
*671 _0624_
*672 _0625_
*673 _0626_
*674 _0627_
*675 _0628_
*676 _0629_
*677 _0630_
*678 _0631_
*679 _0632_
*680 _0633_
*681 _0634_
*682 _0635_
*683 _0636_
*684 _0637_
*685 _0638_
*686 _0639_
*687 _0640_
*688 _0641_
*689 _0642_
*690 _0643_
*691 _0644_
*692 _0645_
*693 _0646_
*694 _0647_
*695 _0648_
*696 _0649_
*697 _0650_
*698 _0651_
*699 _0652_
*700 _0653_
*701 _0654_
*702 _0655_
*703 _0656_
*704 _0657_
*705 _0658_
*706 _0659_
*707 _0660_
*708 _0661_
*709 _0662_
*710 _0663_
*711 _0664_
*712 _0665_
*713 _0666_
*714 _0667_
*715 _0668_
*716 _0669_
*717 _0670_
*718 _0671_
*719 _0672_
*720 _0673_
*721 _0674_
*722 _0675_
*723 _0676_
*724 _0677_
*725 _0678_
*726 _0679_
*727 _0680_
*728 _0681_
*729 _0682_
*730 _0683_
*731 _0684_
*732 _0685_
*733 _0686_
*734 _0687_
*735 _0688_
*736 _0689_
*737 _0690_
*738 _0691_
*739 _0692_
*740 _0693_
*741 _0694_
*742 _0695_
*743 _0696_
*744 _0697_
*745 _0698_
*746 _0699_
*747 _0700_
*748 _0701_
*749 _0702_
*750 _0703_
*751 _0704_
*752 _0705_
*753 _0706_
*754 _0707_
*755 _0708_
*756 _0709_
*757 _0710_
*758 _0711_
*759 _0712_
*760 _0713_
*761 _0714_
*762 _0715_
*763 _0716_
*764 _0717_
*765 _0718_
*766 _0719_
*767 _0720_
*768 _0721_
*769 _0722_
*770 _0723_
*771 _0724_
*772 _0725_
*773 _0726_
*774 _0727_
*775 _0728_
*776 _0729_
*777 _0730_
*778 _0731_
*779 _0732_
*780 _0733_
*781 _0734_
*782 _0735_
*783 _0736_
*784 _0737_
*785 _0738_
*786 _0739_
*787 _0740_
*788 _0741_
*789 _0742_
*790 _0743_
*791 _0744_
*792 _0745_
*793 _0746_
*794 _0747_
*795 _0748_
*796 _0749_
*797 _0750_
*798 _0751_
*799 _0752_
*800 _0753_
*801 _0754_
*802 _0755_
*803 _0756_
*804 _0757_
*805 _0758_
*806 _0759_
*807 _0760_
*808 _0761_
*809 _0762_
*810 _0763_
*811 _0764_
*812 _0765_
*813 _0766_
*814 _0767_
*815 _0768_
*816 _0769_
*817 _0770_
*818 _0771_
*819 _0772_
*820 _0773_
*821 _0774_
*822 _0775_
*823 _0776_
*824 _0777_
*825 _0778_
*826 _0779_
*827 _0780_
*828 _0781_
*829 _0782_
*830 _0783_
*831 _0784_
*832 _0785_
*833 _0786_
*834 _0787_
*835 _0788_
*836 _0789_
*837 _0790_
*838 _0791_
*839 _0792_
*840 _0793_
*841 _0794_
*842 _0795_
*843 _0796_
*844 _0797_
*845 _0798_
*846 _0799_
*847 _0800_
*848 _0801_
*849 _0802_
*850 _0803_
*851 _0804_
*852 _0805_
*853 _0806_
*854 _0807_
*855 _0808_
*856 _0809_
*857 _0810_
*858 _0811_
*859 _0812_
*860 _0813_
*861 _0814_
*862 _0815_
*863 _0816_
*864 _0817_
*865 _0818_
*866 _0819_
*867 _0820_
*868 _0821_
*869 _0822_
*870 _0823_
*871 _0824_
*872 _0825_
*873 _0826_
*874 _0827_
*875 _0828_
*876 _0829_
*877 _0830_
*878 _0831_
*879 _0832_
*880 _0833_
*881 _0834_
*882 _0835_
*883 _0836_
*884 _0837_
*885 _0838_
*886 _0839_
*887 _0840_
*888 _0841_
*889 _0842_
*890 _0843_
*891 _0844_
*892 _0845_
*893 _0846_
*894 _0847_
*895 _0848_
*896 _0849_
*897 _0850_
*898 _0851_
*899 _0852_
*900 _0853_
*901 _0854_
*902 _0855_
*903 _0856_
*904 _0857_
*905 _0858_
*906 _0859_
*907 _0860_
*908 _0861_
*909 _0862_
*910 _0863_
*911 _0864_
*912 _0865_
*913 _0866_
*914 _0867_
*915 _0868_
*916 _0869_
*917 _0870_
*918 _0871_
*919 _0872_
*920 _0873_
*921 _0874_
*922 _0875_
*923 _0876_
*924 _0877_
*925 _0878_
*926 _0879_
*927 _0880_
*928 _0881_
*929 _0882_
*930 _0883_
*931 _0884_
*932 _0885_
*933 _0886_
*934 _0887_
*935 _0888_
*936 _0889_
*937 _0890_
*938 _0891_
*939 _0892_
*940 _0893_
*941 _0894_
*942 _0895_
*943 _0896_
*944 _0897_
*945 _0898_
*946 _0899_
*947 _0900_
*948 _0901_
*949 _0902_
*950 _0903_
*951 _0904_
*952 _0905_
*953 _0906_
*954 _0907_
*955 _0908_
*956 _0909_
*957 _0910_
*958 _0911_
*959 _0912_
*960 _0913_
*961 _0914_
*962 _0915_
*963 _0916_
*964 _0917_
*965 _0918_
*966 _0919_
*967 _0920_
*968 _0921_
*969 _0922_
*970 _0923_
*971 _0924_
*972 _0925_
*973 _0926_
*974 _0927_
*975 _0928_
*976 _0929_
*977 _0930_
*978 _0931_
*979 _0932_
*980 _0933_
*981 _0934_
*982 _0935_
*983 _0936_
*984 _0937_
*985 _0938_
*986 _0939_
*987 _0940_
*988 _0941_
*989 _0942_
*990 _0943_
*991 _0944_
*992 _0945_
*993 _0946_
*994 _0947_
*995 _0948_
*996 _0949_
*997 _0950_
*998 _0951_
*999 _0952_
*1000 _0953_
*1001 _0954_
*1002 _0955_
*1003 _0956_
*1004 _0957_
*1005 _0958_
*1006 _0959_
*1007 _0960_
*1008 _0961_
*1009 _0962_
*1010 _0963_
*1011 _0964_
*1012 _0965_
*1013 _0966_
*1014 _0967_
*1015 _0968_
*1016 _0969_
*1017 _0970_
*1018 _0971_
*1019 _0972_
*1020 _0973_
*1021 _0974_
*1022 _0975_
*1023 _0976_
*1024 _0977_
*1025 _0978_
*1026 _0979_
*1027 _0980_
*1028 _0981_
*1029 _0982_
*1030 _0983_
*1031 _0984_
*1032 bit2symb\.regi
*1033 clknet_0_CLK
*1034 clknet_1_0__leaf_CLK
*1035 clknet_1_1__leaf_CLK
*1036 net1
*1037 net10
*1038 net11
*1039 net12
*1040 net13
*1041 net14
*1042 net15
*1043 net16
*1044 net17
*1045 net18
*1046 net19
*1047 net2
*1048 net20
*1049 net21
*1050 net22
*1051 net23
*1052 net24
*1053 net25
*1054 net26
*1055 net27
*1056 net28
*1057 net29
*1058 net3
*1059 net30
*1060 net31
*1061 net32
*1062 net33
*1063 net34
*1064 net35
*1065 net36
*1066 net37
*1067 net38
*1068 net39
*1069 net4
*1070 net40
*1071 net41
*1072 net42
*1073 net43
*1074 net44
*1075 net45
*1076 net46
*1077 net47
*1078 net48
*1079 net49
*1080 net5
*1081 net6
*1082 net7
*1083 net8
*1084 net9
*1085 p_shaping_I\.bit_in
*1086 p_shaping_I\.bit_in_1
*1087 p_shaping_I\.bit_in_2
*1088 p_shaping_I\.counter\[0\]
*1089 p_shaping_I\.counter\[1\]
*1090 p_shaping_I\.ctl_1
*1091 p_shaping_Q\.bit_in_1
*1092 p_shaping_Q\.bit_in_2
*1093 p_shaping_Q\.counter\[0\]
*1094 p_shaping_Q\.counter\[1\]
*1095 p_shaping_Q\.ctl_1
*1096 ANTENNA__0985__A
*1097 ANTENNA__0986__A
*1098 ANTENNA__0986__B
*1099 ANTENNA__0986__C
*1100 ANTENNA__0987__A
*1101 ANTENNA__0988__A_N
*1102 ANTENNA__0988__B
*1103 ANTENNA__0990__A
*1104 ANTENNA__0991__B
*1105 ANTENNA__0992__A
*1106 ANTENNA__0993__A
*1107 ANTENNA__0994__A
*1108 ANTENNA__0995__C
*1109 ANTENNA__0996__A
*1110 ANTENNA__0996__B
*1111 ANTENNA__0998__A2
*1112 ANTENNA__0998__B1
*1113 ANTENNA__0998__C1
*1114 ANTENNA__0999__A2
*1115 ANTENNA__0999__A3
*1116 ANTENNA__0999__B1
*1117 ANTENNA__1000__A2
*1118 ANTENNA__1001__A
*1119 ANTENNA__1002__A
*1120 ANTENNA__1004__A
*1121 ANTENNA__1005__D_N
*1122 ANTENNA__1008__A
*1123 ANTENNA__1009__A2
*1124 ANTENNA__1010__A
*1125 ANTENNA__1010__B_N
*1126 ANTENNA__1012__B1
*1127 ANTENNA__1015__A2
*1128 ANTENNA__1015__B1
*1129 ANTENNA__1015__C1
*1130 ANTENNA__1016__A
*1131 ANTENNA__1018__A
*1132 ANTENNA__1023__A0
*1133 ANTENNA__1023__S
*1134 ANTENNA__1024__S
*1135 ANTENNA__1027__A0
*1136 ANTENNA__1027__S
*1137 ANTENNA__1030__A_N
*1138 ANTENNA__1030__B
*1139 ANTENNA__1032__A
*1140 ANTENNA__1036__A
*1141 ANTENNA__1038__A
*1142 ANTENNA__1043__B
*1143 ANTENNA__1045__A1
*1144 ANTENNA__1049__B
*1145 ANTENNA__1051__A1
*1146 ANTENNA__1057__A
*1147 ANTENNA__1057__B
*1148 ANTENNA__1058__B
*1149 ANTENNA__1060__A_N
*1150 ANTENNA__1060__B
*1151 ANTENNA__1065__B
*1152 ANTENNA__1067__A2
*1153 ANTENNA__1068__A
*1154 ANTENNA__1070__A2
*1155 ANTENNA__1071__A
*1156 ANTENNA__1071__B
*1157 ANTENNA__1073__A2
*1158 ANTENNA__1074__B1_N
*1159 ANTENNA__1077__A1
*1160 ANTENNA__1079__A
*1161 ANTENNA__1080__B
*1162 ANTENNA__1083__B
*1163 ANTENNA__1086__B1
*1164 ANTENNA__1086__C1
*1165 ANTENNA__1088__A
*1166 ANTENNA__1093__A
*1167 ANTENNA__1093__C
*1168 ANTENNA__1094__C1
*1169 ANTENNA__1102__A
*1170 ANTENNA__1105__B
*1171 ANTENNA__1108__A
*1172 ANTENNA__1110__A1
*1173 ANTENNA__1112__A1
*1174 ANTENNA__1115__A
*1175 ANTENNA__1118__A_N
*1176 ANTENNA__1120__B
*1177 ANTENNA__1122__B1
*1178 ANTENNA__1123__A1_N
*1179 ANTENNA__1124__A1
*1180 ANTENNA__1124__B2
*1181 ANTENNA__1127__A
*1182 ANTENNA__1129__A1
*1183 ANTENNA__1131__A
*1184 ANTENNA__1136__A3
*1185 ANTENNA__1136__B1
*1186 ANTENNA__1140__A1
*1187 ANTENNA__1144__A1_N
*1188 ANTENNA__1144__A2_N
*1189 ANTENNA__1147__C1
*1190 ANTENNA__1149__A1
*1191 ANTENNA__1149__B1
*1192 ANTENNA__1150__A
*1193 ANTENNA__1150__B
*1194 ANTENNA__1157__A
*1195 ANTENNA__1159__A0
*1196 ANTENNA__1159__S1
*1197 ANTENNA__1162__A1
*1198 ANTENNA__1162__B1
*1199 ANTENNA__1163__A1_N
*1200 ANTENNA__1169__A2
*1201 ANTENNA__1170__A1
*1202 ANTENNA__1176__A
*1203 ANTENNA__1182__A
*1204 ANTENNA__1195__A
*1205 ANTENNA__1197__B
*1206 ANTENNA__1198__A1
*1207 ANTENNA__1200__B
*1208 ANTENNA__1202__B
*1209 ANTENNA__1204__A
*1210 ANTENNA__1205__A1
*1211 ANTENNA__1206__B1
*1212 ANTENNA__1213__A1
*1213 ANTENNA__1214__A2
*1214 ANTENNA__1214__B1
*1215 ANTENNA__1221__B1
*1216 ANTENNA__1224__A1
*1217 ANTENNA__1224__B1
*1218 ANTENNA__1225__A
*1219 ANTENNA__1227__A1
*1220 ANTENNA__1239__B
*1221 ANTENNA__1246__A1
*1222 ANTENNA__1246__B2
*1223 ANTENNA__1256__B
*1224 ANTENNA__1257__B
*1225 ANTENNA__1265__A2
*1226 ANTENNA__1265__B1
*1227 ANTENNA__1267__B
*1228 ANTENNA__1268__A
*1229 ANTENNA__1270__A1
*1230 ANTENNA__1277__A
*1231 ANTENNA__1285__A
*1232 ANTENNA__1287__A
*1233 ANTENNA__1287__B
*1234 ANTENNA__1290__B
*1235 ANTENNA__1291__A1
*1236 ANTENNA__1293__A1
*1237 ANTENNA__1297__A1_N
*1238 ANTENNA__1297__A2_N
*1239 ANTENNA__1297__B1
*1240 ANTENNA__1297__B2
*1241 ANTENNA__1299__A
*1242 ANTENNA__1300__B1
*1243 ANTENNA__1309__A
*1244 ANTENNA__1311__A
*1245 ANTENNA__1313__A1
*1246 ANTENNA__1327__A
*1247 ANTENNA__1330__B
*1248 ANTENNA__1331__B
*1249 ANTENNA__1336__S
*1250 ANTENNA__1339__A
*1251 ANTENNA__1340__A1
*1252 ANTENNA__1345__B2
*1253 ANTENNA__1349__A
*1254 ANTENNA__1351__A
*1255 ANTENNA__1352__A1
*1256 ANTENNA__1354__B1
*1257 ANTENNA__1358__A
*1258 ANTENNA__1372__A
*1259 ANTENNA__1380__A
*1260 ANTENNA__1381__A_N
*1261 ANTENNA__1396__C
*1262 ANTENNA__1402__A2
*1263 ANTENNA__1409__A
*1264 ANTENNA__1409__C
*1265 ANTENNA__1428__B1
*1266 ANTENNA__1434__B1
*1267 ANTENNA__1434__B2
*1268 ANTENNA__1440__A0
*1269 ANTENNA__1455__A2
*1270 ANTENNA__1458__A
*1271 ANTENNA__1472__A
*1272 ANTENNA__1495__A
*1273 ANTENNA__1497__A
*1274 ANTENNA__1498__A
*1275 ANTENNA__1499__A
*1276 ANTENNA__1500__A
*1277 ANTENNA__1501__A
*1278 ANTENNA__1502__A
*1279 ANTENNA__1503__A
*1280 ANTENNA__1505__A1
*1281 ANTENNA__1511__B
*1282 ANTENNA__1515__A
*1283 ANTENNA__1517__A
*1284 ANTENNA__1518__A2
*1285 ANTENNA__1520__B2
*1286 ANTENNA__1522__A1
*1287 ANTENNA__1524__A
*1288 ANTENNA__1527__A
*1289 ANTENNA__1527__B
*1290 ANTENNA__1529__A1
*1291 ANTENNA__1530__A2
*1292 ANTENNA__1532__A2
*1293 ANTENNA__1532__A3
*1294 ANTENNA__1533__A
*1295 ANTENNA__1534__A
*1296 ANTENNA__1535__A
*1297 ANTENNA__1536__A1
*1298 ANTENNA__1539__A_N
*1299 ANTENNA__1540__A
*1300 ANTENNA__1541__A2
*1301 ANTENNA__1543__A1
*1302 ANTENNA__1545__A
*1303 ANTENNA__1547__A
*1304 ANTENNA__1548__A
*1305 ANTENNA__1549__B1
*1306 ANTENNA__1552__A
*1307 ANTENNA__1555__A
*1308 ANTENNA__1555__B
*1309 ANTENNA__1557__A1
*1310 ANTENNA__1558__A
*1311 ANTENNA__1559__A1
*1312 ANTENNA__1560__B2
*1313 ANTENNA__1561__A
*1314 ANTENNA__1572__A_N
*1315 ANTENNA__1572__B
*1316 ANTENNA__1577__A1
*1317 ANTENNA__1578__A
*1318 ANTENNA__1580__A2
*1319 ANTENNA__1581__B
*1320 ANTENNA__1584__B
*1321 ANTENNA__1586__B1
*1322 ANTENNA__1588__A2
*1323 ANTENNA__1589__B
*1324 ANTENNA__1591__B1
*1325 ANTENNA__1597__C
*1326 ANTENNA__1598__B1
*1327 ANTENNA__1599__A2
*1328 ANTENNA__1599__B1
*1329 ANTENNA__1602__A
*1330 ANTENNA__1603__B1
*1331 ANTENNA__1604__A
*1332 ANTENNA__1605__B1
*1333 ANTENNA__1616__A1
*1334 ANTENNA__1620__B
*1335 ANTENNA__1622__A
*1336 ANTENNA__1627__A
*1337 ANTENNA__1630__A1
*1338 ANTENNA__1630__B1
*1339 ANTENNA__1634__B1
*1340 ANTENNA__1635__A1
*1341 ANTENNA__1636__A1
*1342 ANTENNA__1636__B1
*1343 ANTENNA__1637__B_N
*1344 ANTENNA__1639__B
*1345 ANTENNA__1640__B
*1346 ANTENNA__1649__B1
*1347 ANTENNA__1650__C
*1348 ANTENNA__1656__A
*1349 ANTENNA__1667__B
*1350 ANTENNA__1667__C
*1351 ANTENNA__1668__A1
*1352 ANTENNA__1669__B1
*1353 ANTENNA__1670__A2
*1354 ANTENNA__1671__A1
*1355 ANTENNA__1673__A1
*1356 ANTENNA__1673__A2
*1357 ANTENNA__1673__B1
*1358 ANTENNA__1679__A
*1359 ANTENNA__1681__A1
*1360 ANTENNA__1682__A1
*1361 ANTENNA__1685__A1
*1362 ANTENNA__1693__A1
*1363 ANTENNA__1693__B1
*1364 ANTENNA__1693__B2
*1365 ANTENNA__1693__C1
*1366 ANTENNA__1695__A
*1367 ANTENNA__1695__B
*1368 ANTENNA__1696__B2
*1369 ANTENNA__1697__A
*1370 ANTENNA__1698__A1
*1371 ANTENNA__1699__A1_N
*1372 ANTENNA__1702__A
*1373 ANTENNA__1712__A2
*1374 ANTENNA__1712__A3
*1375 ANTENNA__1713__A1
*1376 ANTENNA__1713__A2
*1377 ANTENNA__1715__A1
*1378 ANTENNA__1716__A2
*1379 ANTENNA__1721__A
*1380 ANTENNA__1721__B
*1381 ANTENNA__1723__A
*1382 ANTENNA__1723__B
*1383 ANTENNA__1724__A
*1384 ANTENNA__1726__A
*1385 ANTENNA__1727__A1
*1386 ANTENNA__1727__C1
*1387 ANTENNA__1733__A1
*1388 ANTENNA__1734__B1
*1389 ANTENNA__1743__A1
*1390 ANTENNA__1743__A2
*1391 ANTENNA__1743__A3
*1392 ANTENNA__1743__C1
*1393 ANTENNA__1744__A1
*1394 ANTENNA__1744__B1
*1395 ANTENNA__1745__A
*1396 ANTENNA__1746__A
*1397 ANTENNA__1747__B
*1398 ANTENNA__1748__A
*1399 ANTENNA__1749__A1
*1400 ANTENNA__1751__B1
*1401 ANTENNA__1762__A
*1402 ANTENNA__1766__B
*1403 ANTENNA__1766__C_N
*1404 ANTENNA__1767__A1
*1405 ANTENNA__1767__C1
*1406 ANTENNA__1768__A
*1407 ANTENNA__1768__B
*1408 ANTENNA__1769__A1
*1409 ANTENNA__1770__A1
*1410 ANTENNA__1781__A
*1411 ANTENNA__1782__A
*1412 ANTENNA__1783__A2
*1413 ANTENNA__1785__A
*1414 ANTENNA__1786__A1
*1415 ANTENNA__1787__A
*1416 ANTENNA__1788__A1
*1417 ANTENNA__1798__A1
*1418 ANTENNA__1799__A1
*1419 ANTENNA__1800__A
*1420 ANTENNA__1803__A1
*1421 ANTENNA__1803__B2
*1422 ANTENNA__1808__A1
*1423 ANTENNA__1809__A
*1424 ANTENNA__1810__A1
*1425 ANTENNA__1810__A2
*1426 ANTENNA__1811__B2
*1427 ANTENNA__1817__A
*1428 ANTENNA__1818__A1
*1429 ANTENNA__1820__A1
*1430 ANTENNA__1829__A
*1431 ANTENNA__1830__A1
*1432 ANTENNA__1831__A1
*1433 ANTENNA__1831__A2
*1434 ANTENNA__1831__B1
*1435 ANTENNA__1833__A1
*1436 ANTENNA__1836__A
*1437 ANTENNA__1836__B
*1438 ANTENNA__1838__A
*1439 ANTENNA__1839__A
*1440 ANTENNA__1840__A
*1441 ANTENNA__1842__A3
*1442 ANTENNA__1848__A1
*1443 ANTENNA__1848__A3
*1444 ANTENNA__1862__B
*1445 ANTENNA__1864__A1
*1446 ANTENNA__1864__A2
*1447 ANTENNA__1864__A3
*1448 ANTENNA__1865__A
*1449 ANTENNA__1872__A2
*1450 ANTENNA__1873__A
*1451 ANTENNA__1873__B
*1452 ANTENNA__1873__C
*1453 ANTENNA__1878__A1
*1454 ANTENNA__1878__B2
*1455 ANTENNA__1878__C1
*1456 ANTENNA__1880__A2
*1457 ANTENNA__1882__S
*1458 ANTENNA__1892__A1
*1459 ANTENNA__1892__A2
*1460 ANTENNA__1893__B1
*1461 ANTENNA__1894__A
*1462 ANTENNA__1895__A1
*1463 ANTENNA__1898__B1
*1464 ANTENNA__1907__A0
*1465 ANTENNA__1919__A1
*1466 ANTENNA__1919__A2
*1467 ANTENNA__1920__B2
*1468 ANTENNA__1927__A1
*1469 ANTENNA__1938__A1
*1470 ANTENNA__1958__A0
*1471 ANTENNA__1958__S
*1472 ANTENNA__1960__A1
*1473 ANTENNA__1960__S
*1474 ANTENNA__1963__A0
*1475 ANTENNA__1963__S
*1476 ANTENNA__1965__B
*1477 ANTENNA__1966__A
*1478 ANTENNA__1966__B
*1479 ANTENNA__1967__A
*1480 ANTENNA__1968__A1_N
*1481 ANTENNA__1968__B1
*1482 ANTENNA__1969__A1
*1483 ANTENNA__1969__A3
*1484 ANTENNA__1969__B1
*1485 ANTENNA__1972__A
*1486 ANTENNA__1973__A1
*1487 ANTENNA__1973__B1
*1488 ANTENNA__1974__A
*1489 ANTENNA__1974__B
*1490 ANTENNA__1975__A1
*1491 ANTENNA__1975__A2
*1492 ANTENNA__1976__A1
*1493 ANTENNA__1976__B2
*1494 ANTENNA__1977__A1
*1495 ANTENNA__1978__B
*1496 ANTENNA__1982__A1
*1497 ANTENNA__1986__A2
*1498 ANTENNA__1986__B1
*1499 ANTENNA__1990__A
*1500 ANTENNA__1991__A
*1501 ANTENNA__1991__B
*1502 ANTENNA__1992__A1
*1503 ANTENNA__2011__RESET_B
*1504 ANTENNA__2012__D
*1505 ANTENNA__2012__RESET_B
*1506 ANTENNA__2013__CLK
*1507 ANTENNA__2013__RESET_B
*1508 ANTENNA__2015__CLK
*1509 ANTENNA__2015__RESET_B
*1510 ANTENNA__2017__D
*1511 ANTENNA__2017__RESET_B
*1512 ANTENNA__2019__RESET_B
*1513 ANTENNA__2020__CLK
*1514 ANTENNA__2020__RESET_B
*1515 ANTENNA__2021__CLK
*1516 ANTENNA__2021__RESET_B
*1517 ANTENNA_clkbuf_0_CLK_A
*1518 ANTENNA_fanout42_A
*1519 ANTENNA_fanout43_A
*1520 ANTENNA_fanout45_A
*1521 ANTENNA_fanout46_A
*1522 ANTENNA_fanout47_A
*1523 ANTENNA_fanout48_A
*1524 ANTENNA_fanout49_A
*1525 ANTENNA_input1_A
*1526 ANTENNA_input2_A
*1527 ANTENNA_input3_A
*1528 ANTENNA_output10_A
*1529 ANTENNA_output12_A
*1530 ANTENNA_output14_A
*1531 ANTENNA_output15_A
*1532 ANTENNA_output16_A
*1533 ANTENNA_output17_A
*1534 ANTENNA_output19_A
*1535 ANTENNA_output20_A
*1536 ANTENNA_output21_A
*1537 ANTENNA_output22_A
*1538 ANTENNA_output23_A
*1539 ANTENNA_output25_A
*1540 ANTENNA_output26_A
*1541 ANTENNA_output27_A
*1542 ANTENNA_output28_A
*1543 ANTENNA_output29_A
*1544 ANTENNA_output30_A
*1545 ANTENNA_output31_A
*1546 ANTENNA_output32_A
*1547 ANTENNA_output33_A
*1548 ANTENNA_output34_A
*1549 ANTENNA_output35_A
*1550 ANTENNA_output36_A
*1551 ANTENNA_output37_A
*1552 ANTENNA_output39_A
*1553 ANTENNA_output40_A
*1554 ANTENNA_output41_A
*1555 ANTENNA_output4_A
*1556 ANTENNA_output5_A
*1557 ANTENNA_output6_A
*1558 ANTENNA_output8_A
*1559 ANTENNA_output9_A
*1560 FILLER_0_109
*1561 FILLER_0_113
*1562 FILLER_0_119
*1563 FILLER_0_125
*1564 FILLER_0_137
*1565 FILLER_0_141
*1566 FILLER_0_15
*1567 FILLER_0_153
*1568 FILLER_0_165
*1569 FILLER_0_169
*1570 FILLER_0_175
*1571 FILLER_0_181
*1572 FILLER_0_193
*1573 FILLER_0_197
*1574 FILLER_0_209
*1575 FILLER_0_221
*1576 FILLER_0_225
*1577 FILLER_0_231
*1578 FILLER_0_237
*1579 FILLER_0_249
*1580 FILLER_0_253
*1581 FILLER_0_265
*1582 FILLER_0_27
*1583 FILLER_0_277
*1584 FILLER_0_281
*1585 FILLER_0_289
*1586 FILLER_0_29
*1587 FILLER_0_294
*1588 FILLER_0_3
*1589 FILLER_0_300
*1590 FILLER_0_306
*1591 FILLER_0_309
*1592 FILLER_0_313
*1593 FILLER_0_318
*1594 FILLER_0_328
*1595 FILLER_0_334
*1596 FILLER_0_337
*1597 FILLER_0_343
*1598 FILLER_0_362
*1599 FILLER_0_365
*1600 FILLER_0_375
*1601 FILLER_0_383
*1602 FILLER_0_389
*1603 FILLER_0_393
*1604 FILLER_0_41
*1605 FILLER_0_415
*1606 FILLER_0_419
*1607 FILLER_0_421
*1608 FILLER_0_427
*1609 FILLER_0_433
*1610 FILLER_0_439
*1611 FILLER_0_446
*1612 FILLER_0_449
*1613 FILLER_0_471
*1614 FILLER_0_475
*1615 FILLER_0_477
*1616 FILLER_0_482
*1617 FILLER_0_488
*1618 FILLER_0_494
*1619 FILLER_0_500
*1620 FILLER_0_505
*1621 FILLER_0_509
*1622 FILLER_0_515
*1623 FILLER_0_521
*1624 FILLER_0_527
*1625 FILLER_0_531
*1626 FILLER_0_533
*1627 FILLER_0_539
*1628 FILLER_0_54
*1629 FILLER_0_545
*1630 FILLER_0_551
*1631 FILLER_0_557
*1632 FILLER_0_561
*1633 FILLER_0_565
*1634 FILLER_0_57
*1635 FILLER_0_571
*1636 FILLER_0_577
*1637 FILLER_0_585
*1638 FILLER_0_589
*1639 FILLER_0_597
*1640 FILLER_0_602
*1641 FILLER_0_608
*1642 FILLER_0_61
*1643 FILLER_0_617
*1644 FILLER_0_623
*1645 FILLER_0_73
*1646 FILLER_0_81
*1647 FILLER_0_85
*1648 FILLER_0_9
*1649 FILLER_0_97
*1650 FILLER_100_109
*1651 FILLER_100_121
*1652 FILLER_100_133
*1653 FILLER_100_139
*1654 FILLER_100_141
*1655 FILLER_100_15
*1656 FILLER_100_153
*1657 FILLER_100_163
*1658 FILLER_100_175
*1659 FILLER_100_187
*1660 FILLER_100_195
*1661 FILLER_100_197
*1662 FILLER_100_209
*1663 FILLER_100_221
*1664 FILLER_100_233
*1665 FILLER_100_245
*1666 FILLER_100_251
*1667 FILLER_100_253
*1668 FILLER_100_265
*1669 FILLER_100_27
*1670 FILLER_100_277
*1671 FILLER_100_289
*1672 FILLER_100_29
*1673 FILLER_100_3
*1674 FILLER_100_301
*1675 FILLER_100_307
*1676 FILLER_100_309
*1677 FILLER_100_321
*1678 FILLER_100_333
*1679 FILLER_100_345
*1680 FILLER_100_357
*1681 FILLER_100_363
*1682 FILLER_100_365
*1683 FILLER_100_377
*1684 FILLER_100_389
*1685 FILLER_100_401
*1686 FILLER_100_41
*1687 FILLER_100_413
*1688 FILLER_100_419
*1689 FILLER_100_421
*1690 FILLER_100_433
*1691 FILLER_100_438
*1692 FILLER_100_444
*1693 FILLER_100_456
*1694 FILLER_100_468
*1695 FILLER_100_477
*1696 FILLER_100_489
*1697 FILLER_100_501
*1698 FILLER_100_513
*1699 FILLER_100_527
*1700 FILLER_100_53
*1701 FILLER_100_531
*1702 FILLER_100_533
*1703 FILLER_100_545
*1704 FILLER_100_557
*1705 FILLER_100_569
*1706 FILLER_100_581
*1707 FILLER_100_587
*1708 FILLER_100_589
*1709 FILLER_100_601
*1710 FILLER_100_613
*1711 FILLER_100_65
*1712 FILLER_100_77
*1713 FILLER_100_83
*1714 FILLER_100_85
*1715 FILLER_100_97
*1716 FILLER_101_104
*1717 FILLER_101_113
*1718 FILLER_101_125
*1719 FILLER_101_137
*1720 FILLER_101_141
*1721 FILLER_101_15
*1722 FILLER_101_153
*1723 FILLER_101_161
*1724 FILLER_101_167
*1725 FILLER_101_169
*1726 FILLER_101_181
*1727 FILLER_101_193
*1728 FILLER_101_197
*1729 FILLER_101_209
*1730 FILLER_101_221
*1731 FILLER_101_225
*1732 FILLER_101_231
*1733 FILLER_101_237
*1734 FILLER_101_249
*1735 FILLER_101_253
*1736 FILLER_101_265
*1737 FILLER_101_27
*1738 FILLER_101_277
*1739 FILLER_101_281
*1740 FILLER_101_287
*1741 FILLER_101_29
*1742 FILLER_101_293
*1743 FILLER_101_3
*1744 FILLER_101_305
*1745 FILLER_101_309
*1746 FILLER_101_321
*1747 FILLER_101_329
*1748 FILLER_101_334
*1749 FILLER_101_337
*1750 FILLER_101_345
*1751 FILLER_101_35
*1752 FILLER_101_357
*1753 FILLER_101_363
*1754 FILLER_101_365
*1755 FILLER_101_377
*1756 FILLER_101_389
*1757 FILLER_101_393
*1758 FILLER_101_398
*1759 FILLER_101_406
*1760 FILLER_101_41
*1761 FILLER_101_418
*1762 FILLER_101_421
*1763 FILLER_101_433
*1764 FILLER_101_445
*1765 FILLER_101_449
*1766 FILLER_101_457
*1767 FILLER_101_462
*1768 FILLER_101_468
*1769 FILLER_101_477
*1770 FILLER_101_489
*1771 FILLER_101_501
*1772 FILLER_101_505
*1773 FILLER_101_517
*1774 FILLER_101_525
*1775 FILLER_101_53
*1776 FILLER_101_531
*1777 FILLER_101_533
*1778 FILLER_101_545
*1779 FILLER_101_557
*1780 FILLER_101_561
*1781 FILLER_101_57
*1782 FILLER_101_573
*1783 FILLER_101_585
*1784 FILLER_101_589
*1785 FILLER_101_595
*1786 FILLER_101_607
*1787 FILLER_101_611
*1788 FILLER_101_614
*1789 FILLER_101_617
*1790 FILLER_101_623
*1791 FILLER_101_69
*1792 FILLER_101_81
*1793 FILLER_101_85
*1794 FILLER_101_9
*1795 FILLER_101_93
*1796 FILLER_101_98
*1797 FILLER_10_109
*1798 FILLER_10_121
*1799 FILLER_10_133
*1800 FILLER_10_139
*1801 FILLER_10_141
*1802 FILLER_10_15
*1803 FILLER_10_153
*1804 FILLER_10_165
*1805 FILLER_10_177
*1806 FILLER_10_189
*1807 FILLER_10_195
*1808 FILLER_10_197
*1809 FILLER_10_209
*1810 FILLER_10_221
*1811 FILLER_10_233
*1812 FILLER_10_245
*1813 FILLER_10_251
*1814 FILLER_10_253
*1815 FILLER_10_27
*1816 FILLER_10_276
*1817 FILLER_10_280
*1818 FILLER_10_287
*1819 FILLER_10_29
*1820 FILLER_10_293
*1821 FILLER_10_3
*1822 FILLER_10_302
*1823 FILLER_10_309
*1824 FILLER_10_316
*1825 FILLER_10_322
*1826 FILLER_10_326
*1827 FILLER_10_340
*1828 FILLER_10_351