*SPEF "ieee 1481-1999"
*DESIGN "posoco2000"
*DATE "11:11:11 Fri 11 11, 1111"
*VENDOR "OpenRCX"
*PROGRAM "Parallel Extraction"
*VERSION "1.0"
*DESIGN_FLOW "NAME_SCOPE LOCAL" "PIN_CAP NONE"
*DIVIDER /
*DELIMITER :
*BUS_DELIMITER []
*T_UNIT 1 NS
*C_UNIT 1 PF
*R_UNIT 1 OHM
*L_UNIT 1 HENRY

*NAME_MAP
*1 clk
*2 net17
*3 segm[1]
*4 segm[2]
*5 segm[3]
*6 segm[4]
*7 segm[5]
*8 segm[6]
*9 net18
*10 sel[0]
*11 sel[1]
*12 sel[2]
*13 sel[3]
*14 sel[4]
*15 sel[5]
*16 sel[6]
*17 sel[7]
*18 sel[8]
*19 sel[9]
*22 _000_
*23 _001_
*24 _002_
*25 _003_
*26 _004_
*27 _005_
*28 _006_
*29 _007_
*30 _008_
*31 _009_
*32 _010_
*33 _011_
*34 _012_
*35 _013_
*36 _014_
*37 _015_
*38 _016_
*39 _017_
*40 _018_
*41 _019_
*42 _020_
*43 _021_
*44 _022_
*45 _023_
*46 _024_
*47 _025_
*48 _026_
*49 _027_
*50 _028_
*51 _029_
*52 _030_
*53 _031_
*54 _032_
*55 _033_
*56 _034_
*57 _035_
*58 _036_
*59 _037_
*60 _038_
*61 _039_
*62 _040_
*63 _041_
*64 _042_
*65 _043_
*66 _044_
*67 _045_
*68 clknet_0_clk
*69 clknet_1_0__leaf_clk
*70 clknet_1_1__leaf_clk
*71 dut\.count\[0\]
*72 dut\.count\[1\]
*73 dut\.count\[2\]
*74 dut\.count\[3\]
*75 net1
*76 net10
*77 net11
*78 net12
*79 net13
*80 net14
*81 net15
*82 net16
*83 net2
*84 net3
*85 net4
*86 net5
*87 net6
*88 net7
*89 net8
*90 net9
*91 ANTENNA__046__A
*92 ANTENNA__047__A
*93 ANTENNA__048__A
*94 ANTENNA__049__A
*95 ANTENNA__050__A1
*96 ANTENNA__050__A2
*97 ANTENNA__050__A3
*98 ANTENNA__050__B1
*99 ANTENNA__051__A
*100 ANTENNA__051__C
*101 ANTENNA__052__A1
*102 ANTENNA__053__A1
*103 ANTENNA__053__A2
*104 ANTENNA__053__B1
*105 ANTENNA__054__A1
*106 ANTENNA__054__A2
*107 ANTENNA__054__B1
*108 ANTENNA__056__A1
*109 ANTENNA__056__A2
*110 ANTENNA__056__A3
*111 ANTENNA__056__B1
*112 ANTENNA__057__A1
*113 ANTENNA__057__A2
*114 ANTENNA__058__A
*115 ANTENNA__059__A
*116 ANTENNA__060__A
*117 ANTENNA__060__B
*118 ANTENNA__061__B
*119 ANTENNA__062__A1
*120 ANTENNA__062__A2
*121 ANTENNA__062__B1
*122 ANTENNA__062__B2
*123 ANTENNA__063__A
*124 ANTENNA__063__B
*125 ANTENNA__064__A1
*126 ANTENNA__064__A2
*127 ANTENNA__064__B2
*128 ANTENNA__065__A
*129 ANTENNA__065__B
*130 ANTENNA__066__A1
*131 ANTENNA__066__A2
*132 ANTENNA__066__B1
*133 ANTENNA__066__B2
*134 ANTENNA__067__A
*135 ANTENNA__067__B
*136 ANTENNA__067__C
*137 ANTENNA__067__D_N
*138 ANTENNA__068__A1
*139 ANTENNA__068__A2
*140 ANTENNA__068__B1_N
*141 ANTENNA__069__A1
*142 ANTENNA__069__A2
*143 ANTENNA__069__B1
*144 ANTENNA__070__A1
*145 ANTENNA__070__A2
*146 ANTENNA__071__A
*147 ANTENNA__071__B
*148 ANTENNA__072__A
*149 ANTENNA__072__B
*150 ANTENNA__072__C
*151 ANTENNA__073__A1
*152 ANTENNA__074__A
*153 ANTENNA__074__C
*154 ANTENNA__075__A1
*155 ANTENNA__075__B1
*156 ANTENNA__076__A1
*157 ANTENNA__076__A2
*158 ANTENNA__076__B1
*159 ANTENNA__077__A1
*160 ANTENNA__077__A2
*161 ANTENNA__077__B1
*162 ANTENNA__078__A1
*163 ANTENNA__078__B1
*164 ANTENNA__078__B2
*165 ANTENNA__079__A1
*166 ANTENNA__079__B1
*167 ANTENNA__079__B2
*168 ANTENNA__080__A1
*169 ANTENNA__080__A2
*170 ANTENNA__080__A3
*171 ANTENNA__080__B1
*172 ANTENNA__081__A2
*173 ANTENNA__084__A1
*174 ANTENNA__084__B1
*175 ANTENNA__085__A1
*176 ANTENNA__085__B1
*177 ANTENNA__086__A
*178 ANTENNA__086__B
*179 ANTENNA__089__A
*180 ANTENNA__090__A1
*181 ANTENNA__090__A3
*182 ANTENNA__091__A1
*183 ANTENNA__091__A2
*184 ANTENNA__091__B2
*185 ANTENNA__093__D
*186 ANTENNA__107__D
*187 ANTENNA__109__D
*188 ANTENNA__110__D
*189 ANTENNA_clkbuf_0_clk_A
*190 ANTENNA_output10_A
*191 ANTENNA_output11_A
*192 ANTENNA_output12_A
*193 ANTENNA_output13_A
*194 ANTENNA_output14_A
*195 ANTENNA_output15_A
*196 ANTENNA_output16_A
*197 ANTENNA_output2_A
*198 ANTENNA_output3_A
*199 ANTENNA_output4_A
*200 ANTENNA_output5_A
*201 ANTENNA_output6_A
*202 ANTENNA_output7_A
*203 ANTENNA_output8_A
*204 ANTENNA_output9_A
*205 FILLER_0_109
*206 FILLER_0_113
*207 FILLER_0_121
*208 FILLER_0_126
*209 FILLER_0_132
*210 FILLER_0_141
*211 FILLER_0_15
*212 FILLER_0_153
*213 FILLER_0_165
*214 FILLER_0_169
*215 FILLER_0_181
*216 FILLER_0_193
*217 FILLER_0_197
*218 FILLER_0_209
*219 FILLER_0_221
*220 FILLER_0_225
*221 FILLER_0_237
*222 FILLER_0_249
*223 FILLER_0_253
*224 FILLER_0_259
*225 FILLER_0_265
*226 FILLER_0_27
*227 FILLER_0_277
*228 FILLER_0_281
*229 FILLER_0_29
*230 FILLER_0_293
*231 FILLER_0_3
*232 FILLER_0_305
*233 FILLER_0_309
*234 FILLER_0_321
*235 FILLER_0_333
*236 FILLER_0_337
*237 FILLER_0_349
*238 FILLER_0_361
*239 FILLER_0_365
*240 FILLER_0_377
*241 FILLER_0_389
*242 FILLER_0_393
*243 FILLER_0_399
*244 FILLER_0_41
*245 FILLER_0_411
*246 FILLER_0_419
*247 FILLER_0_421
*248 FILLER_0_433
*249 FILLER_0_445
*250 FILLER_0_449
*251 FILLER_0_461
*252 FILLER_0_473
*253 FILLER_0_477
*254 FILLER_0_489
*255 FILLER_0_501
*256 FILLER_0_505
*257 FILLER_0_517
*258 FILLER_0_529
*259 FILLER_0_53
*260 FILLER_0_533
*261 FILLER_0_539
*262 FILLER_0_545
*263 FILLER_0_557
*264 FILLER_0_561
*265 FILLER_0_57
*266 FILLER_0_573
*267 FILLER_0_585
*268 FILLER_0_589
*269 FILLER_0_601
*270 FILLER_0_613
*271 FILLER_0_617
*272 FILLER_0_69
*273 FILLER_0_81
*274 FILLER_0_85
*275 FILLER_0_9
*276 FILLER_0_97
*277 FILLER_100_109
*278 FILLER_100_121
*279 FILLER_100_133
*280 FILLER_100_139
*281 FILLER_100_141
*282 FILLER_100_15
*283 FILLER_100_153
*284 FILLER_100_165
*285 FILLER_100_177
*286 FILLER_100_189
*287 FILLER_100_195
*288 FILLER_100_197
*289 FILLER_100_209
*290 FILLER_100_221
*291 FILLER_100_233
*292 FILLER_100_245
*293 FILLER_100_251
*294 FILLER_100_253
*295 FILLER_100_265
*296 FILLER_100_27
*297 FILLER_100_277
*298 FILLER_100_289
*299 FILLER_100_29
*300 FILLER_100_3
*301 FILLER_100_301
*302 FILLER_100_307
*303 FILLER_100_309
*304 FILLER_100_321
*305 FILLER_100_333
*306 FILLER_100_345
*307 FILLER_100_357
*308 FILLER_100_363
*309 FILLER_100_365
*310 FILLER_100_377
*311 FILLER_100_389
*312 FILLER_100_401
*313 FILLER_100_41
*314 FILLER_100_413
*315 FILLER_100_419
*316 FILLER_100_421
*317 FILLER_100_433
*318 FILLER_100_445
*319 FILLER_100_457
*320 FILLER_100_469
*321 FILLER_100_475
*322 FILLER_100_477
*323 FILLER_100_489
*324 FILLER_100_501
*325 FILLER_100_513
*326 FILLER_100_525
*327 FILLER_100_53
*328 FILLER_100_531
*329 FILLER_100_533
*330 FILLER_100_545
*331 FILLER_100_557
*332 FILLER_100_569
*333 FILLER_100_583
*334 FILLER_100_587
*335 FILLER_100_589
*336 FILLER_100_601
*337 FILLER_100_613
*338 FILLER_100_65
*339 FILLER_100_77
*340 FILLER_100_83
*341 FILLER_100_85
*342 FILLER_100_97
*343 FILLER_101_109
*344 FILLER_101_113
*345 FILLER_101_125
*346 FILLER_101_137
*347 FILLER_101_141
*348 FILLER_101_15
*349 FILLER_101_153
*350 FILLER_101_165
*351 FILLER_101_169
*352 FILLER_101_174
*353 FILLER_101_186
*354 FILLER_101_194
*355 FILLER_101_197
*356 FILLER_101_209
*357 FILLER_101_221
*358 FILLER_101_225
*359 FILLER_101_237
*360 FILLER_101_249
*361 FILLER_101_253
*362 FILLER_101_265
*363 FILLER_101_27
*364 FILLER_101_277
*365 FILLER_101_281
*366 FILLER_101_29
*367 FILLER_101_293
*368 FILLER_101_3
*369 FILLER_101_305
*370 FILLER_101_309
*371 FILLER_101_315
*372 FILLER_101_321
*373 FILLER_101_333
*374 FILLER_101_337
*375 FILLER_101_349
*376 FILLER_101_361
*377 FILLER_101_365
*378 FILLER_101_37
*379 FILLER_101_377
*380 FILLER_101_389
*381 FILLER_101_393
*382 FILLER_101_405
*383 FILLER_101_417
*384 FILLER_101_42
*385 FILLER_101_421
*386 FILLER_101_433
*387 FILLER_101_445
*388 FILLER_101_449
*389 FILLER_101_455
*390 FILLER_101_461
*391 FILLER_101_473
*392 FILLER_101_477
*393 FILLER_101_48
*394 FILLER_101_489
*395 FILLER_101_501
*396 FILLER_101_505
*397 FILLER_101_517
*398 FILLER_101_529
*399 FILLER_101_533
*400 FILLER_101_545
*401 FILLER_101_557
*402 FILLER_101_561
*403 FILLER_101_57
*404 FILLER_101_573
*405 FILLER_101_581
*406 FILLER_101_587
*407 FILLER_101_589
*408 FILLER_101_601
*409 FILLER_101_613
*410 FILLER_101_617
*411 FILLER_101_69
*412 FILLER_101_81
*413 FILLER_101_85
*414 FILLER_101_97
*415 FILLER_10_109
*416 FILLER_10_121
*417 FILLER_10_133
*418 FILLER_10_139
*419 FILLER_10_141
*420 FILLER_10_15
*421 FILLER_10_153
*422 FILLER_10_165
*423 FILLER_10_177
*424 FILLER_10_189
*425 FILLER_10_195
*426 FILLER_10_197
*427 FILLER_10_209
*428 FILLER_10_221
*429 FILLER_10_233
*430 FILLER_10_245
*431 FILLER_10_251
*432 FILLER_10_253
*433 FILLER_10_265
*434 FILLER_10_27
*435 FILLER_10_277
*436 FILLER_10_289
*437 FILLER_10_29
*438 FILLER_10_3
*439 FILLER_10_301
*440 FILLER_10_307
*441 FILLER_10_309
*442 FILLER_10_321
*443 FILLER_10_333
*444 FILLER_10_345
*445 FILLER_10_357
*446 FILLER_10_363
*447 FILLER_10_365
*448 FILLER_10_377
*449 FILLER_10_389
*450 FILLER_10_401
*451 FILLER_10_405
*452 FILLER_10_41
*453 FILLER_10_416
*454 FILLER_10_421
*455 FILLER_10_425
*456 FILLER_10_437
*457 FILLER_10_449
*458 FILLER_10_461
*459 FILLER_10_473
*460 FILLER_10_477
*461 FILLER_10_489
*462 FILLER_10_501
*463 FILLER_10_513
*464 FILLER_10_525
*465 FILLER_10_53
*466 FILLER_10_531
*467 FILLER_10_533
*468 FILLER_10_545
*469 FILLER_10_573
*470 FILLER_10_585
*471 FILLER_10_589
*472 FILLER_10_601
*473 FILLER_10_613
*474 FILLER_10_65
*475 FILLER_10_77
*476 FILLER_10_83
*477 FILLER_10_85
*478 FILLER_10_97
*479 FILLER_11_105
*480 FILLER_11_111
*481 FILLER_11_113
*482 FILLER_11_125
*483 FILLER_11_137
*484 FILLER_11_149
*485 FILLER_11_15
*486 FILLER_11_161
*487 FILLER_11_167
*488 FILLER_11_169
*489 FILLER_11_181
*490 FILLER_11_193
*491 FILLER_11_205
*492 FILLER_11_217
*493 FILLER_11_223
*494 FILLER_11_225
*495 FILLER_11_237
*496 FILLER_11_249
*497 FILLER_11_261
*498 FILLER_11_27
*499 FILLER_11_273
*500 FILLER_11_279
*501 FILLER_11_281
*502 FILLER_11_293
*503 FILLER_11_3
*504 FILLER_11_305
*505 FILLER_11_317
*506 FILLER_11_329
*507 FILLER_11_335
*508 FILLER_11_337
*509 FILLER_11_349
*510 FILLER_11_361
*511 FILLER_11_373
*512 FILLER_11_385
*513 FILLER_11_39
*514 FILLER_11_391
*515 FILLER_11_393
*516 FILLER_11_405
*517 FILLER_11_417
*518 FILLER_11_429
*519 FILLER_11_441
*520 FILLER_11_447
*521 FILLER_11_449
*522 FILLER_11_461
*523 FILLER_11_473
*524 FILLER_11_485
*525 FILLER_11_497
*526 FILLER_11_503
*527 FILLER_11_505
*528 FILLER_11_51
*529 FILLER_11_517
*530 FILLER_11_529
*531 FILLER_11_541
*532 FILLER_11_55
*533 FILLER_11_553
*534 FILLER_11_559
*535 FILLER_11_561
*536 FILLER_11_57
*537 FILLER_11_573
*538 FILLER_11_585
*539 FILLER_11_597
*540 FILLER_11_609
*541 FILLER_11_615
*542 FILLER_11_617
*543 FILLER_11_69
*544 FILLER_11_81
*545 FILLER_11_93
*546 FILLER_12_109
*547 FILLER_12_121
*548 FILLER_12_133
*549 FILLER_12_139
*550 FILLER_12_141
*551 FILLER_12_15
*552 FILLER_12_153
*553 FILLER_12_165
*554 FILLER_12_177
*555 FILLER_12_189
*556 FILLER_12_195
*557 FILLER_12_197
*558 FILLER_12_209
*559 FILLER_12_221
*560 FILLER_12_233
*561 FILLER_12_245
*562 FILLER_12_251
*563 FILLER_12_253
*564 FILLER_12_265
*565 FILLER_12_27
*566 FILLER_12_277
*567 FILLER_12_289
*568 FILLER_12_29
*569 FILLER_12_3
*570 FILLER_12_301
*571 FILLER_12_307
*572 FILLER_12_309
*573 FILLER_12_321
*574 FILLER_12_333
*575 FILLER_12_345
*576 FILLER_12_357
*577 FILLER_12_363
*578 FILLER_12_365
*579 FILLER_12_377
*580 FILLER_12_389
*581 FILLER_12_401
*582 FILLER_12_41
*583 FILLER_12_413
*584 FILLER_12_419
*585 FILLER_12_421
*586 FILLER_12_433
*587 FILLER_12_445
*588 FILLER_12_457
*589 FILLER_12_469
*590 FILLER_12_475
*591 FILLER_12_477
*592 FILLER_12_489
*593 FILLER_12_501
*594 FILLER_12_513
*595 FILLER_12_525
*596 FILLER_12_53
*597 FILLER_12_531
*598 FILLER_12_533
*599 FILLER_12_545
*600 FILLER_12_557
*601 FILLER_12_569
*602 FILLER_12_581
*603 FILLER_12_587
*604 FILLER_12_589
*605 FILLER_12_601
*606 FILLER_12_613
*607 FILLER_12_65
*608 FILLER_12_77
*609 FILLER_12_83
*610 FILLER_12_85
*611 FILLER_12_97
*612 FILLER_13_105
*613 FILLER_13_111
*614 FILLER_13_113
*615 FILLER_13_125
*616 FILLER_13_137
*617 FILLER_13_149
*618 FILLER_13_15
*619 FILLER_13_161
*620 FILLER_13_167
*621 FILLER_13_169
*622 FILLER_13_181
*623 FILLER_13_193
*624 FILLER_13_205
*625 FILLER_13_217
*626 FILLER_13_223
*627 FILLER_13_225
*628 FILLER_13_237
*629 FILLER_13_249
*630 FILLER_13_261
*631 FILLER_13_27
*632 FILLER_13_273
*633 FILLER_13_279
*634 FILLER_13_281
*635 FILLER_13_293
*636 FILLER_13_3
*637 FILLER_13_305
*638 FILLER_13_317
*639 FILLER_13_329
*640 FILLER_13_335
*641 FILLER_13_337
*642 FILLER_13_349
*643 FILLER_13_361
*644 FILLER_13_373
*645 FILLER_13_385
*646 FILLER_13_39
*647 FILLER_13_391
*648 FILLER_13_393
*649 FILLER_13_405
*650 FILLER_13_417
*651 FILLER_13_429
*652 FILLER_13_441
*653 FILLER_13_447
*654 FILLER_13_449
*655 FILLER_13_461
*656 FILLER_13_473
*657 FILLER_13_485
*658 FILLER_13_497
*659 FILLER_13_503
*660 FILLER_13_505
*661 FILLER_13_51
*662 FILLER_13_517
*663 FILLER_13_529
*664 FILLER_13_541
*665 FILLER_13_55
*666 FILLER_13_553
*667 FILLER_13_559
*668 FILLER_13_561
*669 FILLER_13_57
*670 FILLER_13_573
*671 FILLER_13_585
*672 FILLER_13_597
*673 FILLER_13_609
*674 FILLER_13_615
*675 FILLER_13_617
*676 FILLER_13_69
*677 FILLER_13_81
*678 FILLER_13_93
*679 FILLER_14_109
*680 FILLER_14_121
*681 FILLER_14_133
*682 FILLER_14_139
*683 FILLER_14_141
*684 FILLER_14_15
*685 FILLER_14_153
*686 FILLER_14_165
*687 FILLER_14_177
*688 FILLER_14_189
*689 FILLER_14_195
*690 FILLER_14_197
*691 FILLER_14_209
*692 FILLER_14_221
*693 FILLER_14_233
*694 FILLER_14_245
*695 FILLER_14_251
*696 FILLER_14_253
*697 FILLER_14_265
*698 FILLER_14_27
*699 FILLER_14_277
*700 FILLER_14_289
*701 FILLER_14_29
*702 FILLER_14_3
*703 FILLER_14_301
*704 FILLER_14_307
*705 FILLER_14_309
*706 FILLER_14_321
*707 FILLER_14_333
*708 FILLER_14_345
*709 FILLER_14_357
*710 FILLER_14_363
*711 FILLER_14_365
*712 FILLER_14_377
*713 FILLER_14_389
*714 FILLER_14_401
*715 FILLER_14_41
*716 FILLER_14_413
*717 FILLER_14_419
*718 FILLER_14_421
*719 FILLER_14_433
*720 FILLER_14_445
*721 FILLER_14_457
*722 FILLER_14_469
*723 FILLER_14_475
*724 FILLER_14_477
*725 FILLER_14_489
*726 FILLER_14_517
*727 FILLER_14_529
*728 FILLER_14_53
*729 FILLER_14_533
*730 FILLER_14_545
*731 FILLER_14_557
*732 FILLER_14_569
*733 FILLER_14_581
*734 FILLER_14_587
*735 FILLER_14_589
*736 FILLER_14_601
*737 FILLER_14_613
*738 FILLER_14_65
*739 FILLER_14_77
*740 FILLER_14_83
*741 FILLER_14_85
*742 FILLER_14_97
*743 FILLER_15_105
*744 FILLER_15_111
*745 FILLER_15_113
*746 FILLER_15_125
*747 FILLER_15_137
*748 FILLER_15_149
*749 FILLER_15_15
*750 FILLER_15_161
*751 FILLER_15_167
*752 FILLER_15_169
*753 FILLER_15_181
*754 FILLER_15_193
*755 FILLER_15_205
*756 FILLER_15_217
*757 FILLER_15_223
*758 FILLER_15_225
*759 FILLER_15_237
*760 FILLER_15_249
*761 FILLER_15_261
*762 FILLER_15_27
*763 FILLER_15_273
*764 FILLER_15_279
*765 FILLER_15_281
*766 FILLER_15_293
*767 FILLER_15_3
*768 FILLER_15_305
*769 FILLER_15_317
*770 FILLER_15_329
*771 FILLER_15_335
*772 FILLER_15_337
*773 FILLER_15_349
*774 FILLER_15_361
*775 FILLER_15_365
*776 FILLER_15_370
*777 FILLER_15_376
*778 FILLER_15_382
*779 FILLER_15_39
*780 FILLER_15_390
*781 FILLER_15_393
*782 FILLER_15_397
*783 FILLER_15_400
*784 FILLER_15_408
*785 FILLER_15_411
*786 FILLER_15_423
*787 FILLER_15_435
*788 FILLER_15_447
*789 FILLER_15_449
*790 FILLER_15_461
*791 FILLER_15_473
*792 FILLER_15_485
*793 FILLER_15_497
*794 FILLER_15_503
*795 FILLER_15_505
*796 FILLER_15_51
*797 FILLER_15_517
*798 FILLER_15_529
*799 FILLER_15_537
*800 FILLER_15_55
*801 FILLER_15_558
*802 FILLER_15_561
*803 FILLER_15_565
*804 FILLER_15_57
*805 FILLER_15_577
*806 FILLER_15_596
*807 FILLER_15_608
*808 FILLER_15_617
*809 FILLER_15_69
*810 FILLER_15_81
*811 FILLER_15_93
*812 FILLER_16_109
*813 FILLER_16_121
*814 FILLER_16_133
*815 FILLER_16_139
*816 FILLER_16_141
*817 FILLER_16_15
*818 FILLER_16_153
*819 FILLER_16_165
*820 FILLER_16_177
*821 FILLER_16_189
*822 FILLER_16_195
*823 FILLER_16_197
*824 FILLER_16_209
*825 FILLER_16_221
*826 FILLER_16_233
*827 FILLER_16_245
*828 FILLER_16_251
*829 FILLER_16_253
*830 FILLER_16_265
*831 FILLER_16_27
*832 FILLER_16_277
*833 FILLER_16_289
*834 FILLER_16_29
*835 FILLER_16_3
*836 FILLER_16_301
*837 FILLER_16_307
*838 FILLER_16_309
*839 FILLER_16_321
*840 FILLER_16_333
*841 FILLER_16_345
*842 FILLER_16_357
*843 FILLER_16_363
*844 FILLER_16_365
*845 FILLER_16_377
*846 FILLER_16_387
*847 FILLER_16_394
*848 FILLER_16_407
*849 FILLER_16_41
*850 FILLER_16_413
*851 FILLER_16_419
*852 FILLER_16_421
*853 FILLER_16_433
*854 FILLER_16_445
*855 FILLER_16_457
*856 FILLER_16_469
*857 FILLER_16_475
*858 FILLER_16_477
*859 FILLER_16_489
*860 FILLER_16_501
*861 FILLER_16_513
*862 FILLER_16_525
*863 FILLER_16_53
*864 FILLER_16_531
*865 FILLER_16_533
*866 FILLER_16_545
*867 FILLER_16_557
*868 FILLER_16_569
*869 FILLER_16_581
*870 FILLER_16_587
*871 FILLER_16_589
*872 FILLER_16_601
*873 FILLER_16_613
*874 FILLER_16_65
*875 FILLER_16_77
*876 FILLER_16_83
*877 FILLER_16_85
*878 FILLER_16_97
*879 FILLER_17_105
*880 FILLER_17_111
*881 FILLER_17_113
*882 FILLER_17_125
*883 FILLER_17_137
*884 FILLER_17_149
*885 FILLER_17_15
*886 FILLER_17_161
*887 FILLER_17_167
*888 FILLER_17_169
*889 FILLER_17_181
*890 FILLER_17_193
*891 FILLER_17_205
*892 FILLER_17_217
*893 FILLER_17_223
*894 FILLER_17_225
*895 FILLER_17_237
*896 FILLER_17_249
*897 FILLER_17_261
*898 FILLER_17_27
*899 FILLER_17_273
*900 FILLER_17_279
*901 FILLER_17_281
*902 FILLER_17_293
*903 FILLER_17_3
*904 FILLER_17_305
*905 FILLER_17_317
*906 FILLER_17_329
*907 FILLER_17_335
*908 FILLER_17_337
*909 FILLER_17_349
*910 FILLER_17_361
*911 FILLER_17_367
*912 FILLER_17_373
*913 FILLER_17_385
*914 FILLER_17_39
*915 FILLER_17_391
*916 FILLER_17_393
*917 FILLER_17_405
*918 FILLER_17_415
*919 FILLER_17_427
*920 FILLER_17_439
*921 FILLER_17_447
*922 FILLER_17_449
*923 FILLER_17_461
*924 FILLER_17_473
*925 FILLER_17_485
*926 FILLER_17_497
*927 FILLER_17_503
*928 FILLER_17_505
*929 FILLER_17_51
*930 FILLER_17_517
*931 FILLER_17_538
*932 FILLER_17_55
*933 FILLER_17_550
*934 FILLER_17_558
*935 FILLER_17_561
*936 FILLER_17_57
*937 FILLER_17_573
*938 FILLER_17_585
*939 FILLER_17_597
*940 FILLER_17_609
*941 FILLER_17_615
*942 FILLER_17_617
*943 FILLER_17_69
*944 FILLER_17_81
*945 FILLER_17_93
*946 FILLER_18_109
*947 FILLER_18_121
*948 FILLER_18_133
*949 FILLER_18_139
*950 FILLER_18_141
*951 FILLER_18_15
*952 FILLER_18_153
*953 FILLER_18_165
*954 FILLER_18_177
*955 FILLER_18_189
*956 FILLER_18_195
*957 FILLER_18_197
*958 FILLER_18_209
*959 FILLER_18_221
*960 FILLER_18_233
*961 FILLER_18_245
*962 FILLER_18_251
*963 FILLER_18_253
*964 FILLER_18_265
*965 FILLER_18_27
*966 FILLER_18_277
*967 FILLER_18_289
*968 FILLER_18_29
*969 FILLER_18_3
*970 FILLER_18_301
*971 FILLER_18_307
*972 FILLER_18_309
*973 FILLER_18_321
*974 FILLER_18_333
*975 FILLER_18_345
*976 FILLER_18_357
*977 FILLER_18_363
*978 FILLER_18_365
*979 FILLER_18_369
*980 FILLER_18_373
*981 FILLER_18_385
*982 FILLER_18_397
*983 FILLER_18_405
*984 FILLER_18_41
*985 FILLER_18_413
*986 FILLER_18_419
*987 FILLER_18_421
*988 FILLER_18_433
*989 FILLER_18_445
*990 FILLER_18_474
*991 FILLER_18_477
*992 FILLER_18_489
*993 FILLER_18_501
*994 FILLER_18_513
*995 FILLER_18_525
*996 FILLER_18_53
*997 FILLER_18_531
*998 FILLER_18_533
*999 FILLER_18_545
*1000 FILLER_18_557
*1001 FILLER_18_569
*1002 FILLER_18_581
*1003 FILLER_18_587
*1004 FILLER_18_589
*1005 FILLER_18_601
*1006 FILLER_18_613
*1007 FILLER_18_65
*1008 FILLER_18_77
*1009 FILLER_18_83
*1010 FILLER_18_85
*1011 FILLER_18_97
*1012 FILLER_19_105
*1013 FILLER_19_111
*1014 FILLER_19_113
*1015 FILLER_19_125
*1016 FILLER_19_137
*1017 FILLER_19_149
*1018 FILLER_19_15
*1019 FILLER_19_161
*1020 FILLER_19_167
*1021 FILLER_19_169
*1022 FILLER_19_181
*1023 FILLER_19_193
*1024 FILLER_19_205
*1025 FILLER_19_217
*1026 FILLER_19_223
*1027 FILLER_19_225
*1028 FILLER_19_237
*1029 FILLER_19_249
*1030 FILLER_19_261
*1031 FILLER_19_27
*1032 FILLER_19_273
*1033 FILLER_19_279
*1034 FILLER_19_281
*1035 FILLER_19_293
*1036 FILLER_19_3
*1037 FILLER_19_305
*1038 FILLER_19_317
*1039 FILLER_19_329
*1040 FILLER_19_335
*1041 FILLER_19_337
*1042 FILLER_19_349
*1043 FILLER_19_361
*1044 FILLER_19_373
*1045 FILLER_19_385
*1046 FILLER_19_389
*1047 FILLER_19_39
*1048 FILLER_19_393
*1049 FILLER_19_405
*1050 FILLER_19_417
*1051 FILLER_19_429
*1052 FILLER_19_441
*1053 FILLER_19_447
*1054 FILLER_19_449
*1055 FILLER_19_461
*1056 FILLER_19_473
*1057 FILLER_19_477
*1058 FILLER_19_480
*1059 FILLER_19_500
*1060 FILLER_19_505
*1061 FILLER_19_51
*1062 FILLER_19_517
*1063 FILLER_19_529
*1064 FILLER_19_541
*1065 FILLER_19_55
*1066 FILLER_19_553
*1067 FILLER_19_559
*1068 FILLER_19_561
*1069 FILLER_19_57
*1070 FILLER_19_573
*1071 FILLER_19_585
*1072 FILLER_19_597
*1073 FILLER_19_609
*1074 FILLER_19_615
*1075 FILLER_19_617
*1076 FILLER_19_69
*1077 FILLER_19_81
*1078 FILLER_19_93
*1079 FILLER_1_105
*1080 FILLER_1_111
*1081 FILLER_1_113
*1082 FILLER_1_125
*1083 FILLER_1_137
*1084 FILLER_1_149
*1085 FILLER_1_15
*1086 FILLER_1_161
*1087 FILLER_1_167
*1088 FILLER_1_169
*1089 FILLER_1_181
*1090 FILLER_1_193
*1091 FILLER_1_205
*1092 FILLER_1_217
*1093 FILLER_1_223
*1094 FILLER_1_225
*1095 FILLER_1_237
*1096 FILLER_1_249
*1097 FILLER_1_261
*1098 FILLER_1_27
*1099 FILLER_1_273
*1100 FILLER_1_279
*1101 FILLER_1_281
*1102 FILLER_1_293
*1103 FILLER_1_3
*1104 FILLER_1_305
*1105 FILLER_1_317
*1106 FILLER_1_329
*1107 FILLER_1_335
*1108 FILLER_1_337
*1109 FILLER_1_349
*1110 FILLER_1_361
*1111 FILLER_1_373
*1112 FILLER_1_385
*1113 FILLER_1_39
*1114 FILLER_1_391
*1115 FILLER_1_393
*1116 FILLER_1_405
*1117 FILLER_1_417
*1118 FILLER_1_429
*1119 FILLER_1_441
*1120 FILLER_1_447
*1121 FILLER_1_449
*1122 FILLER_1_461
*1123 FILLER_1_473
*1124 FILLER_1_485
*1125 FILLER_1_497
*1126 FILLER_1_503
*1127 FILLER_1_505
*1128 FILLER_1_51
*1129 FILLER_1_517
*1130 FILLER_1_529
*1131 FILLER_1_541
*1132 FILLER_1_55
*1133 FILLER_1_553
*1134 FILLER_1_559
*1135 FILLER_1_561
*1136 FILLER_1_57
*1137 FILLER_1_573
*1138 FILLER_1_585
*1139 FILLER_1_597
*1140 FILLER_1_609
*1141 FILLER_1_615
*1142 FILLER_1_617
*1143 FILLER_1_69
*1144 FILLER_1_81
*1145 FILLER_1_93
*1146 FILLER_20_109
*1147 FILLER_20_121
*1148 FILLER_20_133
*1149 FILLER_20_139
*1150 FILLER_20_141
*1151 FILLER_20_15
*1152 FILLER_20_153
*1153 FILLER_20_165
*1154 FILLER_20_177
*1155 FILLER_20_189
*1156 FILLER_20_195
*1157 FILLER_20_197
*1158 FILLER_20_209
*1159 FILLER_20_221
*1160 FILLER_20_233
*1161 FILLER_20_245
*1162 FILLER_20_251
*1163 FILLER_20_253
*1164 FILLER_20_265
*1165 FILLER_20_27
*1166 FILLER_20_277
*1167 FILLER_20_289
*1168 FILLER_20_29
*1169 FILLER_20_3
*1170 FILLER_20_301
*1171 FILLER_20_307
*1172 FILLER_20_309
*1173 FILLER_20_321
*1174 FILLER_20_333
*1175 FILLER_20_345
*1176 FILLER_20_357
*1177 FILLER_20_363
*1178 FILLER_20_365
*1179 FILLER_20_377
*1180 FILLER_20_385
*1181 FILLER_20_397
*1182 FILLER_20_403
*1183 FILLER_20_409
*1184 FILLER_20_41
*1185 FILLER_20_417
*1186 FILLER_20_421
*1187 FILLER_20_433
*1188 FILLER_20_445
*1189 FILLER_20_457
*1190 FILLER_20_469
*1191 FILLER_20_475
*1192 FILLER_20_477
*1193 FILLER_20_489
*1194 FILLER_20_501
*1195 FILLER_20_513
*1196 FILLER_20_525
*1197 FILLER_20_53
*1198 FILLER_20_531
*1199 FILLER_20_533
*1200 FILLER_20_545
*1201 FILLER_20_557
*1202 FILLER_20_569
*1203 FILLER_20_581
*1204 FILLER_20_587
*1205 FILLER_20_589
*1206 FILLER_20_601
*1207 FILLER_20_613
*1208 FILLER_20_65
*1209 FILLER_20_77
*1210 FILLER_20_83
*1211 FILLER_20_85
*1212 FILLER_20_9
*1213 FILLER_20_97
*1214 FILLER_21_105
*1215 FILLER_21_111
*1216 FILLER_21_113
*1217 FILLER_21_125
*1218 FILLER_21_137
*1219 FILLER_21_149
*1220 FILLER_21_15
*1221 FILLER_21_161
*1222 FILLER_21_167
*1223 FILLER_21_169
*1224 FILLER_21_181
*1225 FILLER_21_193
*1226 FILLER_21_205
*1227 FILLER_21_217
*1228 FILLER_21_223
*1229 FILLER_21_225
*1230 FILLER_21_237
*1231 FILLER_21_249
*1232 FILLER_21_261
*1233 FILLER_21_27
*1234 FILLER_21_273
*1235 FILLER_21_279
*1236 FILLER_21_281
*1237 FILLER_21_293
*1238 FILLER_21_3
*1239 FILLER_21_305
*1240 FILLER_21_317
*1241 FILLER_21_329
*1242 FILLER_21_335
*1243 FILLER_21_337
*1244 FILLER_21_349
*1245 FILLER_21_361
*1246 FILLER_21_373
*1247 FILLER_21_385
*1248 FILLER_21_39
*1249 FILLER_21_391
*1250 FILLER_21_393
*1251 FILLER_21_405
*1252 FILLER_21_417
*1253 FILLER_21_429
*1254 FILLER_21_441
*1255 FILLER_21_447
*1256 FILLER_21_449
*1257 FILLER_21_468
*1258 FILLER_21_480
*1259 FILLER_21_492
*1260 FILLER_21_505
*1261 FILLER_21_51
*1262 FILLER_21_525
*1263 FILLER_21_537
*1264 FILLER_21_549
*1265 FILLER_21_55
*1266 FILLER_21_557
*1267 FILLER_21_561
*1268 FILLER_21_57
*1269 FILLER_21_573
*1270 FILLER_21_585
*1271 FILLER_21_597
*1272 FILLER_21_609
*1273 FILLER_21_615
*1274 FILLER_21_617
*1275 FILLER_21_69
*1276 FILLER_21_81
*1277 FILLER_21_93
*1278 FILLER_22_109
*1279 FILLER_22_121
*1280 FILLER_22_133
*1281 FILLER_22_139
*1282 FILLER_22_141
*1283 FILLER_22_15
*1284 FILLER_22_153
*1285 FILLER_22_165
*1286 FILLER_22_177
*1287 FILLER_22_189
*1288 FILLER_22_195
*1289 FILLER_22_197
*1290 FILLER_22_209
*1291 FILLER_22_221
*1292 FILLER_22_233
*1293 FILLER_22_245
*1294 FILLER_22_251
*1295 FILLER_22_253
*1296 FILLER_22_265
*1297 FILLER_22_27
*1298 FILLER_22_277
*1299 FILLER_22_289
*1300 FILLER_22_29
*1301 FILLER_22_3
*1302 FILLER_22_301
*1303 FILLER_22_307
*1304 FILLER_22_309
*1305 FILLER_22_321
*1306 FILLER_22_333
*1307 FILLER_22_345
*1308 FILLER_22_357
*1309 FILLER_22_363
*1310 FILLER_22_365
*1311 FILLER_22_371
*1312 FILLER_22_375
*1313 FILLER_22_381
*1314 FILLER_22_387
*1315 FILLER_22_399
*1316 FILLER_22_41
*1317 FILLER_22_411
*1318 FILLER_22_419
*1319 FILLER_22_421
*1320 FILLER_22_433
*1321 FILLER_22_445
*1322 FILLER_22_457
*1323 FILLER_22_469
*1324 FILLER_22_475
*1325 FILLER_22_477
*1326 FILLER_22_489
*1327 FILLER_22_501
*1328 FILLER_22_513
*1329 FILLER_22_525
*1330 FILLER_22_53
*1331 FILLER_22_531
*1332 FILLER_22_533
*1333 FILLER_22_545
*1334 FILLER_22_557
*1335 FILLER_22_569
*1336 FILLER_22_581
*1337 FILLER_22_587
*1338 FILLER_22_589
*1339 FILLER_22_608
*1340 FILLER_22_623
*1341 FILLER_22_65
*1342 FILLER_22_77
*1343 FILLER_22_83
*1344 FILLER_22_85
*1345 FILLER_22_97
*1346 FILLER_23_105
*1347 FILLER_23_111
*1348 FILLER_23_113
*1349 FILLER_23_125
*1350 FILLER_23_137
*1351 FILLER_23_149
*1352 FILLER_23_15
*1353 FILLER_23_161
*1354 FILLER_23_167
*1355 FILLER_23_169
*1356 FILLER_23_181
*1357 FILLER_23_193
*1358 FILLER_23_205
*1359 FILLER_23_217
*1360 FILLER_23_223
*1361 FILLER_23_225
*1362 FILLER_23_237
*1363 FILLER_23_249
*1364 FILLER_23_261
*1365 FILLER_23_27
*1366 FILLER_23_273
*1367 FILLER_23_279
*1368 FILLER_23_281
*1369 FILLER_23_293
*1370 FILLER_23_3
*1371 FILLER_23_305
*1372 FILLER_23_317
*1373 FILLER_23_329
*1374 FILLER_23_335
*1375 FILLER_23_337
*1376 FILLER_23_349
*1377 FILLER_23_361
*1378 FILLER_23_373
*1379 FILLER_23_383
*1380 FILLER_23_39
*1381 FILLER_23_391
*1382 FILLER_23_393
*1383 FILLER_23_405
*1384 FILLER_23_417
*1385 FILLER_23_429
*1386 FILLER_23_441
*1387 FILLER_23_447
*1388 FILLER_23_449
*1389 FILLER_23_461
*1390 FILLER_23_473
*1391 FILLER_23_485
*1392 FILLER_23_497
*1393 FILLER_23_503
*1394 FILLER_23_505
*1395 FILLER_23_51
*1396 FILLER_23_517
*1397 FILLER_23_529
*1398 FILLER_23_541
*1399 FILLER_23_55
*1400 FILLER_23_553
*1401 FILLER_23_559
*1402 FILLER_23_561
*1403 FILLER_23_57
*1404 FILLER_23_573
*1405 FILLER_23_585
*1406 FILLER_23_597
*1407 FILLER_23_609
*1408 FILLER_23_615
*1409 FILLER_23_617
*1410 FILLER_23_69
*1411 FILLER_23_81
*1412 FILLER_23_93
*1413 FILLER_24_109
*1414 FILLER_24_121
*1415 FILLER_24_133
*1416 FILLER_24_139
*1417 FILLER_24_141
*1418 FILLER_24_15
*1419 FILLER_24_153
*1420 FILLER_24_165
*1421 FILLER_24_177
*1422 FILLER_24_189
*1423 FILLER_24_195
*1424 FILLER_24_197
*1425 FILLER_24_209
*1426 FILLER_24_221
*1427 FILLER_24_233
*1428 FILLER_24_245
*1429 FILLER_24_251
*1430 FILLER_24_253
*1431 FILLER_24_265
*1432 FILLER_24_27
*1433 FILLER_24_277
*1434 FILLER_24_289
*1435 FILLER_24_29
*1436 FILLER_24_3
*1437 FILLER_24_301
*1438 FILLER_24_307
*1439 FILLER_24_309
*1440 FILLER_24_321
*1441 FILLER_24_333
*1442 FILLER_24_345
*1443 FILLER_24_357
*1444 FILLER_24_363
*1445 FILLER_24_365
*1446 FILLER_24_377
*1447 FILLER_24_381
*1448 FILLER_24_387
*1449 FILLER_24_399
*1450 FILLER_24_403
*1451 FILLER_24_406
*1452 FILLER_24_41
*1453 FILLER_24_418
*1454 FILLER_24_421
*1455 FILLER_24_433
*1456 FILLER_24_445
*1457 FILLER_24_457
*1458 FILLER_24_469
*1459 FILLER_24_475
*1460 FILLER_24_477
*1461 FILLER_24_489
*1462 FILLER_24_493
*1463 FILLER_24_511
*1464 FILLER_24_523
*1465 FILLER_24_53
*1466 FILLER_24_531
*1467 FILLER_24_533
*1468 FILLER_24_545
*1469 FILLER_24_557
*1470 FILLER_24_563
*1471 FILLER_24_581
*1472 FILLER_24_587
*1473 FILLER_24_589
*1474 FILLER_24_601
*1475 FILLER_24_613
*1476 FILLER_24_65
*1477 FILLER_24_77
*1478 FILLER_24_83
*1479 FILLER_24_85
*1480 FILLER_24_97
*1481 FILLER_25_105
*1482 FILLER_25_111
*1483 FILLER_25_113
*1484 FILLER_25_125
*1485 FILLER_25_137
*1486 FILLER_25_149
*1487 FILLER_25_15
*1488 FILLER_25_161
*1489 FILLER_25_167
*1490 FILLER_25_169
*1491 FILLER_25_181
*1492 FILLER_25_193
*1493 FILLER_25_205
*1494 FILLER_25_217
*1495 FILLER_25_223
*1496 FILLER_25_225
*1497 FILLER_25_237
*1498 FILLER_25_249
*1499 FILLER_25_261
*1500 FILLER_25_27
*1501 FILLER_25_273
*1502 FILLER_25_279
*1503 FILLER_25_281
*1504 FILLER_25_293
*1505 FILLER_25_3
*1506 FILLER_25_305
*1507 FILLER_25_317
*1508 FILLER_25_329
*1509 FILLER_25_335
*1510 FILLER_25_337
*1511 FILLER_25_349
*1512 FILLER_25_361
*1513 FILLER_25_373
*1514 FILLER_25_377
*1515 FILLER_25_380
*1516 FILLER_25_39
*1517 FILLER_25_393
*1518 FILLER_25_400
*1519 FILLER_25_406
*1520 FILLER_25_412
*1521 FILLER_25_424
*1522 FILLER_25_436
*1523 FILLER_25_449
*1524 FILLER_25_461
*1525 FILLER_25_473
*1526 FILLER_25_485
*1527 FILLER_25_497
*1528 FILLER_25_503
*1529 FILLER_25_505
*1530 FILLER_25_51
*1531 FILLER_25_517
*1532 FILLER_25_529
*1533 FILLER_25_541
*1534 FILLER_25_55
*1535 FILLER_25_553
*1536 FILLER_25_559
*1537 FILLER_25_561
*1538 FILLER_25_57
*1539 FILLER_25_573
*1540 FILLER_25_585
*1541 FILLER_25_589
*1542 FILLER_25_606
*1543 FILLER_25_614
*1544 FILLER_25_617
*1545 FILLER_25_69
*1546 FILLER_25_81
*1547 FILLER_25_93
*1548 FILLER_26_109
*1549 FILLER_26_121
*1550 FILLER_26_133
*1551 FILLER_26_139
*1552 FILLER_26_141
*1553 FILLER_26_15
*1554 FILLER_26_153
*1555 FILLER_26_165
*1556 FILLER_26_177
*1557 FILLER_26_189
*1558 FILLER_26_195
*1559 FILLER_26_197
*1560 FILLER_26_209
*1561 FILLER_26_221
*1562 FILLER_26_233
*1563 FILLER_26_245
*1564 FILLER_26_251
*1565 FILLER_26_253
*1566 FILLER_26_265
*1567 FILLER_26_27
*1568 FILLER_26_277