*SPEF "ieee 1481-1999"
*DESIGN "user_project_wrapper"
*DATE "11:11:11 Fri 11 11, 1111"
*VENDOR "OpenRCX"
*PROGRAM "Parallel Extraction"
*VERSION "1.0"
*DESIGN_FLOW "NAME_SCOPE LOCAL" "PIN_CAP NONE"
*DIVIDER /
*DELIMITER :
*BUS_DELIMITER []
*T_UNIT 1 NS
*C_UNIT 1 PF
*R_UNIT 1 OHM
*L_UNIT 1 HENRY

*NAME_MAP
*1 analog_io[0]
*2 analog_io[10]
*3 analog_io[11]
*4 analog_io[12]
*5 analog_io[13]
*6 analog_io[14]
*7 analog_io[15]
*8 analog_io[16]
*9 analog_io[17]
*10 analog_io[18]
*11 analog_io[19]
*12 analog_io[1]
*13 analog_io[20]
*14 analog_io[21]
*15 analog_io[22]
*16 analog_io[23]
*17 analog_io[24]
*18 analog_io[25]
*19 analog_io[26]
*20 analog_io[27]
*21 analog_io[28]
*22 analog_io[2]
*23 analog_io[3]
*24 analog_io[4]
*25 analog_io[5]
*26 analog_io[6]
*27 analog_io[7]
*28 analog_io[8]
*29 analog_io[9]
*30 io_in[0]
*31 io_in[10]
*32 io_in[11]
*33 io_in[12]
*34 io_in[13]
*35 io_in[14]
*36 io_in[15]
*37 io_in[16]
*38 io_in[17]
*39 io_in[18]
*40 io_in[19]
*41 io_in[1]
*42 io_in[20]
*43 io_in[21]
*44 io_in[22]
*45 io_in[23]
*46 io_in[24]
*47 io_in[25]
*48 io_in[26]
*49 io_in[27]
*50 io_in[28]
*51 io_in[29]
*52 io_in[2]
*53 io_in[30]
*54 io_in[31]
*55 io_in[32]
*56 io_in[33]
*57 io_in[34]
*58 io_in[35]
*59 io_in[36]
*60 io_in[37]
*61 io_in[3]
*62 io_in[4]
*63 io_in[5]
*64 io_in[6]
*65 io_in[7]
*66 io_in[8]
*67 io_in[9]
*68 io_oeb[0]
*69 io_oeb[10]
*70 io_oeb[11]
*71 io_oeb[12]
*72 io_oeb[13]
*73 io_oeb[14]
*74 io_oeb[15]
*75 io_oeb[16]
*76 io_oeb[17]
*77 io_oeb[18]
*78 io_oeb[19]
*79 io_oeb[1]
*80 io_oeb[20]
*81 io_oeb[21]
*82 io_oeb[22]
*83 io_oeb[23]
*84 io_oeb[24]
*85 io_oeb[25]
*86 io_oeb[26]
*87 io_oeb[27]
*88 io_oeb[28]
*89 io_oeb[29]
*90 io_oeb[2]
*91 io_oeb[30]
*92 io_oeb[31]
*93 io_oeb[32]
*94 io_oeb[33]
*95 io_oeb[34]
*96 io_oeb[35]
*97 io_oeb[36]
*98 io_oeb[37]
*99 io_oeb[3]
*100 io_oeb[4]
*101 io_oeb[5]
*102 io_oeb[6]
*103 io_oeb[7]
*104 io_oeb[8]
*105 io_oeb[9]
*106 io_out[0]
*107 io_out[10]
*108 io_out[11]
*109 io_out[12]
*110 io_out[13]
*111 io_out[14]
*112 io_out[15]
*113 io_out[16]
*114 io_out[17]
*115 io_out[18]
*116 io_out[19]
*117 io_out[1]
*118 io_out[20]
*119 io_out[21]
*120 io_out[22]
*121 io_out[23]
*122 io_out[24]
*123 io_out[25]
*124 io_out[26]
*125 io_out[27]
*126 io_out[28]
*127 io_out[29]
*128 io_out[2]
*129 io_out[30]
*130 io_out[31]
*131 io_out[32]
*132 io_out[33]
*133 io_out[34]
*134 io_out[35]
*135 io_out[36]
*136 io_out[37]
*137 io_out[3]
*138 io_out[4]
*139 io_out[5]
*140 io_out[6]
*141 io_out[7]
*142 io_out[8]
*143 io_out[9]
*144 la_data_in[0]
*145 la_data_in[100]
*146 la_data_in[101]
*147 la_data_in[102]
*148 la_data_in[103]
*149 la_data_in[104]
*150 la_data_in[105]
*151 la_data_in[106]
*152 la_data_in[107]
*153 la_data_in[108]
*154 la_data_in[109]
*155 la_data_in[10]
*156 la_data_in[110]
*157 la_data_in[111]
*158 la_data_in[112]
*159 la_data_in[113]
*160 la_data_in[114]
*161 la_data_in[115]
*162 la_data_in[116]
*163 la_data_in[117]
*164 la_data_in[118]
*165 la_data_in[119]
*166 la_data_in[11]
*167 la_data_in[120]
*168 la_data_in[121]
*169 la_data_in[122]
*170 la_data_in[123]
*171 la_data_in[124]
*172 la_data_in[125]
*173 la_data_in[126]
*174 la_data_in[127]
*175 la_data_in[12]
*176 la_data_in[13]
*177 la_data_in[14]
*178 la_data_in[15]
*179 la_data_in[16]
*180 la_data_in[17]
*181 la_data_in[18]
*182 la_data_in[19]
*183 la_data_in[1]
*184 la_data_in[20]
*185 la_data_in[21]
*186 la_data_in[22]
*187 la_data_in[23]
*188 la_data_in[24]
*189 la_data_in[25]
*190 la_data_in[26]
*191 la_data_in[27]
*192 la_data_in[28]
*193 la_data_in[29]
*194 la_data_in[2]
*195 la_data_in[30]
*196 la_data_in[31]
*197 la_data_in[32]
*198 la_data_in[33]
*199 la_data_in[34]
*200 la_data_in[35]
*201 la_data_in[36]
*202 la_data_in[37]
*203 la_data_in[38]
*204 la_data_in[39]
*205 la_data_in[3]
*206 la_data_in[40]
*207 la_data_in[41]
*208 la_data_in[42]
*209 la_data_in[43]
*210 la_data_in[44]
*211 la_data_in[45]
*212 la_data_in[46]
*213 la_data_in[47]
*214 la_data_in[48]
*215 la_data_in[49]
*216 la_data_in[4]
*217 la_data_in[50]
*218 la_data_in[51]
*219 la_data_in[52]
*220 la_data_in[53]
*221 la_data_in[54]
*222 la_data_in[55]
*223 la_data_in[56]
*224 la_data_in[57]
*225 la_data_in[58]
*226 la_data_in[59]
*227 la_data_in[5]
*228 la_data_in[60]
*229 la_data_in[61]
*230 la_data_in[62]
*231 la_data_in[63]
*232 la_data_in[64]
*233 la_data_in[65]
*234 la_data_in[66]
*235 la_data_in[67]
*236 la_data_in[68]
*237 la_data_in[69]
*238 la_data_in[6]
*239 la_data_in[70]
*240 la_data_in[71]
*241 la_data_in[72]
*242 la_data_in[73]
*243 la_data_in[74]
*244 la_data_in[75]
*245 la_data_in[76]
*246 la_data_in[77]
*247 la_data_in[78]
*248 la_data_in[79]
*249 la_data_in[7]
*250 la_data_in[80]
*251 la_data_in[81]
*252 la_data_in[82]
*253 la_data_in[83]
*254 la_data_in[84]
*255 la_data_in[85]
*256 la_data_in[86]
*257 la_data_in[87]
*258 la_data_in[88]
*259 la_data_in[89]
*260 la_data_in[8]
*261 la_data_in[90]
*262 la_data_in[91]
*263 la_data_in[92]
*264 la_data_in[93]
*265 la_data_in[94]
*266 la_data_in[95]
*267 la_data_in[96]
*268 la_data_in[97]
*269 la_data_in[98]
*270 la_data_in[99]
*271 la_data_in[9]
*272 la_data_out[0]
*273 la_data_out[100]
*274 la_data_out[101]
*275 la_data_out[102]
*276 la_data_out[103]
*277 la_data_out[104]
*278 la_data_out[105]
*279 la_data_out[106]
*280 la_data_out[107]
*281 la_data_out[108]
*282 la_data_out[109]
*283 la_data_out[10]
*284 la_data_out[110]
*285 la_data_out[111]
*286 la_data_out[112]
*287 la_data_out[113]
*288 la_data_out[114]
*289 la_data_out[115]
*290 la_data_out[116]
*291 la_data_out[117]
*292 la_data_out[118]
*293 la_data_out[119]
*294 la_data_out[11]
*295 la_data_out[120]
*296 la_data_out[121]
*297 la_data_out[122]
*298 la_data_out[123]
*299 la_data_out[124]
*300 la_data_out[125]
*301 la_data_out[126]
*302 la_data_out[127]
*303 la_data_out[12]
*304 la_data_out[13]
*305 la_data_out[14]
*306 la_data_out[15]
*307 la_data_out[16]
*308 la_data_out[17]
*309 la_data_out[18]
*310 la_data_out[19]
*311 la_data_out[1]
*312 la_data_out[20]
*313 la_data_out[21]
*314 la_data_out[22]
*315 la_data_out[23]
*316 la_data_out[24]
*317 la_data_out[25]
*318 la_data_out[26]
*319 la_data_out[27]
*320 la_data_out[28]
*321 la_data_out[29]
*322 la_data_out[2]
*323 la_data_out[30]
*324 la_data_out[31]
*325 la_data_out[32]
*326 la_data_out[33]
*327 la_data_out[34]
*328 la_data_out[35]
*329 la_data_out[36]
*330 la_data_out[37]
*331 la_data_out[38]
*332 la_data_out[39]
*333 la_data_out[3]
*334 la_data_out[40]
*335 la_data_out[41]
*336 la_data_out[42]
*337 la_data_out[43]
*338 la_data_out[44]
*339 la_data_out[45]
*340 la_data_out[46]
*341 la_data_out[47]
*342 la_data_out[48]
*343 la_data_out[49]
*344 la_data_out[4]
*345 la_data_out[50]
*346 la_data_out[51]
*347 la_data_out[52]
*348 la_data_out[53]
*349 la_data_out[54]
*350 la_data_out[55]
*351 la_data_out[56]
*352 la_data_out[57]
*353 la_data_out[58]
*354 la_data_out[59]
*355 la_data_out[5]
*356 la_data_out[60]
*357 la_data_out[61]
*358 la_data_out[62]
*359 la_data_out[63]
*360 la_data_out[64]
*361 la_data_out[65]
*362 la_data_out[66]
*363 la_data_out[67]
*364 la_data_out[68]
*365 la_data_out[69]
*366 la_data_out[6]
*367 la_data_out[70]
*368 la_data_out[71]
*369 la_data_out[72]
*370 la_data_out[73]
*371 la_data_out[74]
*372 la_data_out[75]
*373 la_data_out[76]
*374 la_data_out[77]
*375 la_data_out[78]
*376 la_data_out[79]
*377 la_data_out[7]
*378 la_data_out[80]
*379 la_data_out[81]
*380 la_data_out[82]
*381 la_data_out[83]
*382 la_data_out[84]
*383 la_data_out[85]
*384 la_data_out[86]
*385 la_data_out[87]
*386 la_data_out[88]
*387 la_data_out[89]
*388 la_data_out[8]
*389 la_data_out[90]
*390 la_data_out[91]
*391 la_data_out[92]
*392 la_data_out[93]
*393 la_data_out[94]
*394 la_data_out[95]
*395 la_data_out[96]
*396 la_data_out[97]
*397 la_data_out[98]
*398 la_data_out[99]
*399 la_data_out[9]
*400 la_oenb[0]
*401 la_oenb[100]
*402 la_oenb[101]
*403 la_oenb[102]
*404 la_oenb[103]
*405 la_oenb[104]
*406 la_oenb[105]
*407 la_oenb[106]
*408 la_oenb[107]
*409 la_oenb[108]
*410 la_oenb[109]
*411 la_oenb[10]
*412 la_oenb[110]
*413 la_oenb[111]
*414 la_oenb[112]
*415 la_oenb[113]
*416 la_oenb[114]
*417 la_oenb[115]
*418 la_oenb[116]
*419 la_oenb[117]
*420 la_oenb[118]
*421 la_oenb[119]
*422 la_oenb[11]
*423 la_oenb[120]
*424 la_oenb[121]
*425 la_oenb[122]
*426 la_oenb[123]
*427 la_oenb[124]
*428 la_oenb[125]
*429 la_oenb[126]
*430 la_oenb[127]
*431 la_oenb[12]
*432 la_oenb[13]
*433 la_oenb[14]
*434 la_oenb[15]
*435 la_oenb[16]
*436 la_oenb[17]
*437 la_oenb[18]
*438 la_oenb[19]
*439 la_oenb[1]
*440 la_oenb[20]
*441 la_oenb[21]
*442 la_oenb[22]
*443 la_oenb[23]
*444 la_oenb[24]
*445 la_oenb[25]
*446 la_oenb[26]
*447 la_oenb[27]
*448 la_oenb[28]
*449 la_oenb[29]
*450 la_oenb[2]
*451 la_oenb[30]
*452 la_oenb[31]
*453 la_oenb[32]
*454 la_oenb[33]
*455 la_oenb[34]
*456 la_oenb[35]
*457 la_oenb[36]
*458 la_oenb[37]
*459 la_oenb[38]
*460 la_oenb[39]
*461 la_oenb[3]
*462 la_oenb[40]
*463 la_oenb[41]
*464 la_oenb[42]
*465 la_oenb[43]
*466 la_oenb[44]
*467 la_oenb[45]
*468 la_oenb[46]
*469 la_oenb[47]
*470 la_oenb[48]
*471 la_oenb[49]
*472 la_oenb[4]
*473 la_oenb[50]
*474 la_oenb[51]
*475 la_oenb[52]
*476 la_oenb[53]
*477 la_oenb[54]
*478 la_oenb[55]
*479 la_oenb[56]
*480 la_oenb[57]
*481 la_oenb[58]
*482 la_oenb[59]
*483 la_oenb[5]
*484 la_oenb[60]
*485 la_oenb[61]
*486 la_oenb[62]
*487 la_oenb[63]
*488 la_oenb[64]
*489 la_oenb[65]
*490 la_oenb[66]
*491 la_oenb[67]
*492 la_oenb[68]
*493 la_oenb[69]
*494 la_oenb[6]
*495 la_oenb[70]
*496 la_oenb[71]
*497 la_oenb[72]
*498 la_oenb[73]
*499 la_oenb[74]
*500 la_oenb[75]
*501 la_oenb[76]
*502 la_oenb[77]
*503 la_oenb[78]
*504 la_oenb[79]
*505 la_oenb[7]
*506 la_oenb[80]
*507 la_oenb[81]
*508 la_oenb[82]
*509 la_oenb[83]
*510 la_oenb[84]
*511 la_oenb[85]
*512 la_oenb[86]
*513 la_oenb[87]
*514 la_oenb[88]
*515 la_oenb[89]
*516 la_oenb[8]
*517 la_oenb[90]
*518 la_oenb[91]
*519 la_oenb[92]
*520 la_oenb[93]
*521 la_oenb[94]
*522 la_oenb[95]
*523 la_oenb[96]
*524 la_oenb[97]
*525 la_oenb[98]
*526 la_oenb[99]
*527 la_oenb[9]
*528 user_clock2
*529 user_irq[0]
*530 user_irq[1]
*531 user_irq[2]
*540 wb_clk_i
*541 wb_rst_i
*542 wbs_ack_o
*543 wbs_adr_i[0]
*544 wbs_adr_i[10]
*545 wbs_adr_i[11]
*546 wbs_adr_i[12]
*547 wbs_adr_i[13]
*548 wbs_adr_i[14]
*549 wbs_adr_i[15]
*550 wbs_adr_i[16]
*551 wbs_adr_i[17]
*552 wbs_adr_i[18]
*553 wbs_adr_i[19]
*554 wbs_adr_i[1]
*555 wbs_adr_i[20]
*556 wbs_adr_i[21]
*557 wbs_adr_i[22]
*558 wbs_adr_i[23]
*559 wbs_adr_i[24]
*560 wbs_adr_i[25]
*561 wbs_adr_i[26]
*562 wbs_adr_i[27]
*563 wbs_adr_i[28]
*564 wbs_adr_i[29]
*565 wbs_adr_i[2]
*566 wbs_adr_i[30]
*567 wbs_adr_i[31]
*568 wbs_adr_i[3]
*569 wbs_adr_i[4]
*570 wbs_adr_i[5]
*571 wbs_adr_i[6]
*572 wbs_adr_i[7]
*573 wbs_adr_i[8]
*574 wbs_adr_i[9]
*575 wbs_cyc_i
*576 wbs_dat_i[0]
*577 wbs_dat_i[10]
*578 wbs_dat_i[11]
*579 wbs_dat_i[12]
*580 wbs_dat_i[13]
*581 wbs_dat_i[14]
*582 wbs_dat_i[15]
*583 wbs_dat_i[16]
*584 wbs_dat_i[17]
*585 wbs_dat_i[18]
*586 wbs_dat_i[19]
*587 wbs_dat_i[1]
*588 wbs_dat_i[20]
*589 wbs_dat_i[21]
*590 wbs_dat_i[22]
*591 wbs_dat_i[23]
*592 wbs_dat_i[24]
*593 wbs_dat_i[25]
*594 wbs_dat_i[26]
*595 wbs_dat_i[27]
*596 wbs_dat_i[28]
*597 wbs_dat_i[29]
*598 wbs_dat_i[2]
*599 wbs_dat_i[30]
*600 wbs_dat_i[31]
*601 wbs_dat_i[3]
*602 wbs_dat_i[4]
*603 wbs_dat_i[5]
*604 wbs_dat_i[6]
*605 wbs_dat_i[7]
*606 wbs_dat_i[8]
*607 wbs_dat_i[9]
*608 wbs_dat_o[0]
*609 wbs_dat_o[10]
*610 wbs_dat_o[11]
*611 wbs_dat_o[12]
*612 wbs_dat_o[13]
*613 wbs_dat_o[14]
*614 wbs_dat_o[15]
*615 wbs_dat_o[16]
*616 wbs_dat_o[17]
*617 wbs_dat_o[18]
*618 wbs_dat_o[19]
*619 wbs_dat_o[1]
*620 wbs_dat_o[20]
*621 wbs_dat_o[21]
*622 wbs_dat_o[22]
*623 wbs_dat_o[23]
*624 wbs_dat_o[24]
*625 wbs_dat_o[25]
*626 wbs_dat_o[26]
*627 wbs_dat_o[27]
*628 wbs_dat_o[28]
*629 wbs_dat_o[29]
*630 wbs_dat_o[2]
*631 wbs_dat_o[30]
*632 wbs_dat_o[31]
*633 wbs_dat_o[3]
*634 wbs_dat_o[4]
*635 wbs_dat_o[5]
*636 wbs_dat_o[6]
*637 wbs_dat_o[7]
*638 wbs_dat_o[8]
*639 wbs_dat_o[9]
*640 wbs_sel_i[0]
*641 wbs_sel_i[1]
*642 wbs_sel_i[2]
*643 wbs_sel_i[3]
*644 wbs_stb_i
*645 wbs_we_i
*646 OQPSK_PS_RCOSINE2
*647 OQPSK_RCOSINE_ALL
*648 Top_Module_4_ALU
*649 divider
*650 posoco2000

*PORTS
analog_io[0] I
analog_io[10] I
analog_io[11] I
analog_io[12] I
analog_io[13] I
analog_io[14] I
analog_io[15] I
analog_io[16] I
analog_io[17] I
analog_io[18] I
analog_io[19] I
analog_io[1] I
analog_io[20] I
analog_io[21] I
analog_io[22] I
analog_io[23] I
analog_io[24] I
analog_io[25] I
analog_io[26] I
analog_io[27] I
analog_io[28] I
analog_io[2] I
analog_io[3] I
analog_io[4] I
analog_io[5] I
analog_io[6] I
analog_io[7] I
analog_io[8] I
analog_io[9] I
io_in[0] I
io_in[10] I
io_in[11] I
io_in[12] I
io_in[13] I
io_in[14] I
io_in[15] I
io_in[16] I
io_in[17] I
io_in[18] I
io_in[19] I
io_in[1] I
io_in[20] I
io_in[21] I
io_in[22] I
io_in[23] I
io_in[24] I
io_in[25] I
io_in[26] I
io_in[27] I
io_in[28] I
io_in[29] I
io_in[2] I
io_in[30] I
io_in[31] I
io_in[32] I
io_in[33] I
io_in[34] I
io_in[35] I
io_in[36] I
io_in[37] I
io_in[3] I
io_in[4] I
io_in[5] I
io_in[6] I
io_in[7] I
io_in[8] I
io_in[9] I
io_oeb[0] O
io_oeb[10] O
io_oeb[11] O
io_oeb[12] O
io_oeb[13] O
io_oeb[14] O
io_oeb[15] O
io_oeb[16] O
io_oeb[17] O
io_oeb[18] O
io_oeb[19] O
io_oeb[1] O
io_oeb[20] O
io_oeb[21] O
io_oeb[22] O
io_oeb[23] O
io_oeb[24] O
io_oeb[25] O
io_oeb[26] O
io_oeb[27] O
io_oeb[28] O
io_oeb[29] O
io_oeb[2] O
io_oeb[30] O
io_oeb[31] O
io_oeb[32] O
io_oeb[33] O
io_oeb[34] O
io_oeb[35] O
io_oeb[36] O
io_oeb[37] O
io_oeb[3] O
io_oeb[4] O
io_oeb[5] O
io_oeb[6] O
io_oeb[7] O
io_oeb[8] O
io_oeb[9] O
io_out[0] O
io_out[10] O
io_out[11] O
io_out[12] O
io_out[13] O
io_out[14] O
io_out[15] O
io_out[16] O
io_out[17] O
io_out[18] O
io_out[19] O
io_out[1] O
io_out[20] O
io_out[21] O
io_out[22] O
io_out[23] O
io_out[24] O
io_out[25] O
io_out[26] O
io_out[27] O
io_out[28] O
io_out[29] O
io_out[2] O
io_out[30] O
io_out[31] O
io_out[32] O
io_out[33] O
io_out[34] O
io_out[35] O
io_out[36] O
io_out[37] O
io_out[3] O
io_out[4] O
io_out[5] O
io_out[6] O
io_out[7] O
io_out[8] O
io_out[9] O
la_data_in[0] I
la_data_in[100] I
la_data_in[101] I
la_data_in[102] I
la_data_in[103] I
la_data_in[104] I
la_data_in[105] I
la_data_in[106] I
la_data_in[107] I
la_data_in[108] I
la_data_in[109] I
la_data_in[10] I
la_data_in[110] I
la_data_in[111] I
la_data_in[112] I
la_data_in[113] I
la_data_in[114] I
la_data_in[115] I
la_data_in[116] I
la_data_in[117] I
la_data_in[118] I
la_data_in[119] I
la_data_in[11] I
la_data_in[120] I
la_data_in[121] I
la_data_in[122] I
la_data_in[123] I
la_data_in[124] I
la_data_in[125] I
la_data_in[126] I
la_data_in[127] I
la_data_in[12] I
la_data_in[13] I
la_data_in[14] I
la_data_in[15] I
la_data_in[16] I
la_data_in[17] I
la_data_in[18] I
la_data_in[19] I
la_data_in[1] I
la_data_in[20] I
la_data_in[21] I
la_data_in[22] I
la_data_in[23] I
la_data_in[24] I
la_data_in[25] I
la_data_in[26] I
la_data_in[27] I
la_data_in[28] I
la_data_in[29] I
la_data_in[2] I
la_data_in[30] I
la_data_in[31] I
la_data_in[32] I
la_data_in[33] I
la_data_in[34] I
la_data_in[35] I
la_data_in[36] I
la_data_in[37] I
la_data_in[38] I
la_data_in[39] I
la_data_in[3] I
la_data_in[40] I
la_data_in[41] I
la_data_in[42] I
la_data_in[43] I
la_data_in[44] I
la_data_in[45] I
la_data_in[46] I
la_data_in[47] I
la_data_in[48] I
la_data_in[49] I
la_data_in[4] I
la_data_in[50] I
la_data_in[51] I
la_data_in[52] I
la_data_in[53] I
la_data_in[54] I
la_data_in[55] I
la_data_in[56] I
la_data_in[57] I
la_data_in[58] I
la_data_in[59] I
la_data_in[5] I
la_data_in[60] I
la_data_in[61] I
la_data_in[62] I
la_data_in[63] I
la_data_in[64] I
la_data_in[65] I
la_data_in[66] I
la_data_in[67] I
la_data_in[68] I
la_data_in[69] I
la_data_in[6] I
la_data_in[70] I
la_data_in[71] I
la_data_in[72] I
la_data_in[73] I
la_data_in[74] I
la_data_in[75] I
la_data_in[76] I
la_data_in[77] I
la_data_in[78] I
la_data_in[79] I
la_data_in[7] I
la_data_in[80] I
la_data_in[81] I
la_data_in[82] I
la_data_in[83] I
la_data_in[84] I
la_data_in[85] I
la_data_in[86] I
la_data_in[87] I
la_data_in[88] I
la_data_in[89] I
la_data_in[8] I
la_data_in[90] I
la_data_in[91] I
la_data_in[92] I
la_data_in[93] I
la_data_in[94] I
la_data_in[95] I
la_data_in[96] I
la_data_in[97] I
la_data_in[98] I
la_data_in[99] I
la_data_in[9] I
la_data_out[0] O
la_data_out[100] O
la_data_out[101] O
la_data_out[102] O
la_data_out[103] O
la_data_out[104] O
la_data_out[105] O
la_data_out[106] O
la_data_out[107] O
la_data_out[108] O
la_data_out[109] O
la_data_out[10] O
la_data_out[110] O
la_data_out[111] O
la_data_out[112] O
la_data_out[113] O
la_data_out[114] O
la_data_out[115] O
la_data_out[116] O
la_data_out[117] O
la_data_out[118] O
la_data_out[119] O
la_data_out[11] O
la_data_out[120] O
la_data_out[121] O
la_data_out[122] O
la_data_out[123] O
la_data_out[124] O
la_data_out[125] O
la_data_out[126] O
la_data_out[127] O
la_data_out[12] O
la_data_out[13] O
la_data_out[14] O
la_data_out[15] O
la_data_out[16] O
la_data_out[17] O
la_data_out[18] O
la_data_out[19] O
la_data_out[1] O
la_data_out[20] O
la_data_out[21] O
la_data_out[22] O
la_data_out[23] O
la_data_out[24] O
la_data_out[25] O
la_data_out[26] O
la_data_out[27] O
la_data_out[28] O
la_data_out[29] O
la_data_out[2] O
la_data_out[30] O
la_data_out[31] O
la_data_out[32] O
la_data_out[33] O
la_data_out[34] O
la_data_out[35] O
la_data_out[36] O
la_data_out[37] O
la_data_out[38] O
la_data_out[39] O
la_data_out[3] O
la_data_out[40] O
la_data_out[41] O
la_data_out[42] O
la_data_out[43] O
la_data_out[44] O
la_data_out[45] O
la_data_out[46] O
la_data_out[47] O
la_data_out[48] O
la_data_out[49] O
la_data_out[4] O
la_data_out[50] O
la_data_out[51] O
la_data_out[52] O
la_data_out[53] O
la_data_out[54] O
la_data_out[55] O
la_data_out[56] O
la_data_out[57] O
la_data_out[58] O
la_data_out[59] O
la_data_out[5] O
la_data_out[60] O
la_data_out[61] O
la_data_out[62] O
la_data_out[63] O
la_data_out[64] O
la_data_out[65] O
la_data_out[66] O
la_data_out[67] O
la_data_out[68] O
la_data_out[69] O
la_data_out[6] O
la_data_out[70] O
la_data_out[71] O
la_data_out[72] O
la_data_out[73] O
la_data_out[74] O
la_data_out[75] O
la_data_out[76] O
la_data_out[77] O
la_data_out[78] O
la_data_out[79] O
la_data_out[7] O
la_data_out[80] O
la_data_out[81] O
la_data_out[82] O
la_data_out[83] O
la_data_out[84] O
la_data_out[85] O
la_data_out[86] O
la_data_out[87] O
la_data_out[88] O
la_data_out[89] O
la_data_out[8] O
la_data_out[90] O
la_data_out[91] O
la_data_out[92] O
la_data_out[93] O
la_data_out[94] O
la_data_out[95] O
la_data_out[96] O
la_data_out[97] O
la_data_out[98] O
la_data_out[99] O
la_data_out[9] O
la_oenb[0] I
la_oenb[100] I
la_oenb[101] I
la_oenb[102] I
la_oenb[103] I
la_oenb[104] I
la_oenb[105] I
la_oenb[106] I
la_oenb[107] I
la_oenb[108] I
la_oenb[109] I
la_oenb[10] I
la_oenb[110] I
la_oenb[111] I
la_oenb[112] I
la_oenb[113] I
la_oenb[114] I
la_oenb[115] I
la_oenb[116] I
la_oenb[117] I
la_oenb[118] I
la_oenb[119] I
la_oenb[11] I
la_oenb[120] I
la_oenb[121] I
la_oenb[122] I
la_oenb[123] I
la_oenb[124] I
la_oenb[125] I
la_oenb[126] I
la_oenb[127] I
la_oenb[12] I
la_oenb[13] I
la_oenb[14] I
la_oenb[15] I
la_oenb[16] I
la_oenb[17] I
la_oenb[18] I
la_oenb[19] I
la_oenb[1] I
la_oenb[20] I
la_oenb[21] I
la_oenb[22] I
la_oenb[23] I
la_oenb[24] I
la_oenb[25] I
la_oenb[26] I
la_oenb[27] I
la_oenb[28] I
la_oenb[29] I
la_oenb[2] I
la_oenb[30] I
la_oenb[31] I
la_oenb[32] I
la_oenb[33] I
la_oenb[34] I
la_oenb[35] I
la_oenb[36] I
la_oenb[37] I
la_oenb[38] I
la_oenb[39] I
la_oenb[3] I
la_oenb[40] I
la_oenb[41] I
la_oenb[42] I
la_oenb[43] I
la_oenb[44] I
la_oenb[45] I
la_oenb[46] I
la_oenb[47] I
la_oenb[48] I
la_oenb[49] I
la_oenb[4] I
la_oenb[50] I
la_oenb[51] I
la_oenb[52] I
la_oenb[53] I
la_oenb[54] I
la_oenb[55] I
la_oenb[56] I
la_oenb[57] I
la_oenb[58] I
la_oenb[59] I
la_oenb[5] I
la_oenb[60] I
la_oenb[61] I
la_oenb[62] I
la_oenb[63] I
la_oenb[64] I
la_oenb[65] I
la_oenb[66] I
la_oenb[67] I
la_oenb[68] I
la_oenb[69] I
la_oenb[6] I
la_oenb[70] I
la_oenb[71] I
la_oenb[72] I
la_oenb[73] I
la_oenb[74] I
la_oenb[75] I
la_oenb[76] I
la_oenb[77] I
la_oenb[78] I
la_oenb[79] I
la_oenb[7] I
la_oenb[80] I
la_oenb[81] I
la_oenb[82] I
la_oenb[83] I
la_oenb[84] I
la_oenb[85] I
la_oenb[86] I
la_oenb[87] I
la_oenb[88] I
la_oenb[89] I
la_oenb[8] I
la_oenb[90] I
la_oenb[91] I
la_oenb[92] I
la_oenb[93] I
la_oenb[94] I
la_oenb[95] I
la_oenb[96] I
la_oenb[97] I
la_oenb[98] I
la_oenb[99] I
la_oenb[9] I
user_clock2 I
user_irq[0] O
user_irq[1] O
user_irq[2] O
wb_clk_i I
wb_rst_i I
wbs_ack_o O
wbs_adr_i[0] I
wbs_adr_i[10] I
wbs_adr_i[11] I
wbs_adr_i[12] I
wbs_adr_i[13] I
wbs_adr_i[14] I
wbs_adr_i[15] I
wbs_adr_i[16] I
wbs_adr_i[17] I
wbs_adr_i[18] I
wbs_adr_i[19] I
wbs_adr_i[1] I
wbs_adr_i[20] I
wbs_adr_i[21] I
wbs_adr_i[22] I
wbs_adr_i[23] I
wbs_adr_i[24] I
wbs_adr_i[25] I
wbs_adr_i[26] I
wbs_adr_i[27] I
wbs_adr_i[28] I
wbs_adr_i[29] I
wbs_adr_i[2] I
wbs_adr_i[30] I
wbs_adr_i[31] I
wbs_adr_i[3] I
wbs_adr_i[4] I
wbs_adr_i[5] I
wbs_adr_i[6] I
wbs_adr_i[7] I
wbs_adr_i[8] I
wbs_adr_i[9] I
wbs_cyc_i I
wbs_dat_i[0] I
wbs_dat_i[10] I
wbs_dat_i[11] I
wbs_dat_i[12] I
wbs_dat_i[13] I
wbs_dat_i[14] I
wbs_dat_i[15] I
wbs_dat_i[16] I
wbs_dat_i[17] I
wbs_dat_i[18] I
wbs_dat_i[19] I
wbs_dat_i[1] I
wbs_dat_i[20] I
wbs_dat_i[21] I
wbs_dat_i[22] I
wbs_dat_i[23] I
wbs_dat_i[24] I
wbs_dat_i[25] I
wbs_dat_i[26] I
wbs_dat_i[27] I
wbs_dat_i[28] I
wbs_dat_i[29] I
wbs_dat_i[2] I
wbs_dat_i[30] I
wbs_dat_i[31] I
wbs_dat_i[3] I
wbs_dat_i[4] I
wbs_dat_i[5] I
wbs_dat_i[6] I
wbs_dat_i[7] I
wbs_dat_i[8] I
wbs_dat_i[9] I
wbs_dat_o[0] O
wbs_dat_o[10] O
wbs_dat_o[11] O
wbs_dat_o[12] O
wbs_dat_o[13] O
wbs_dat_o[14] O
wbs_dat_o[15] O
wbs_dat_o[16] O
wbs_dat_o[17] O
wbs_dat_o[18] O
wbs_dat_o[19] O
wbs_dat_o[1] O
wbs_dat_o[20] O
wbs_dat_o[21] O
wbs_dat_o[22] O
wbs_dat_o[23] O
wbs_dat_o[24] O
wbs_dat_o[25] O
wbs_dat_o[26] O
wbs_dat_o[27] O
wbs_dat_o[28] O
wbs_dat_o[29] O
wbs_dat_o[2] O
wbs_dat_o[30] O
wbs_dat_o[31] O
wbs_dat_o[3] O
wbs_dat_o[4] O
wbs_dat_o[5] O
wbs_dat_o[6] O
wbs_dat_o[7] O
wbs_dat_o[8] O
wbs_dat_o[9] O
wbs_sel_i[0] I
wbs_sel_i[1] I
wbs_sel_i[2] I
wbs_sel_i[3] I
wbs_stb_i I
wbs_we_i I

*D_NET *63 0.281481
*CONN
*P io_in[5] I
*I *648:Operation[0] I *D Top_Module_4_ALU
*CAP
1 io_in[5] 0.00100125
2 *648:Operation[0] 0.00115309
3 *63:17 0.0450877
4 *63:16 0.0439347
5 *63:14 0.0243808
6 *63:13 0.0243808
7 *63:11 0.0221631
8 *63:10 0.0231644
9 *63:10 *65:8 2.11157e-05
10 *63:14 *409:11 0.000362998
11 *63:17 *64:17 0.090046
12 *63:17 *209:20 0
13 *63:17 *334:16 0.00578542
14 *63:17 *398:10 0
15 *63:17 *432:10 0
16 *63:17 *450:16 0
17 *63:17 *465:20 0
18 *63:17 *485:16 0
19 *63:17 *499:20 0
20 *63:17 *517:14 0
21 *63:17 *519:22 0
22 *63:17 *519:26 0
23 *63:17 *524:16 0
*RES
1 io_in[5] *63:10 26.4832 
2 *63:10 *63:11 485.626 
3 *63:11 *63:13 15 
4 *63:13 *63:14 564.982 
5 *63:14 *63:16 15 
6 *63:16 *63:17 1298.41 
7 *63:17 *648:Operation[0] 36.0768 
*END

*D_NET *64 0.304164
*CONN
*P io_in[6] I
*I *648:Operation[1] I *D Top_Module_4_ALU
*CAP
1 io_in[6] 0.00117397
2 *648:Operation[1] 0.00112762
3 *64:17 0.0223917
4 *64:16 0.0212641
5 *64:14 0.0331479
6 *64:13 0.0331479
7 *64:11 0.0288703
8 *64:10 0.0300442
9 *648:Operation[1] *463:7 0
10 *64:10 *65:8 0.000519247
11 *64:17 *217:12 0
12 *64:17 *248:12 0.0204092
13 *64:17 *334:16 0.00725551
14 *64:17 *339:16 0
15 *64:17 *351:17 0.00503485
16 *64:17 *362:11 0.00586884
17 *64:17 *372:17 0.00374278
18 *64:17 *467:14 0
19 *64:17 *471:14 0
20 *64:17 *479:14 0.000119983
21 *63:17 *64:17 0.090046
*RES
1 io_in[6] *64:10 32.8218 
2 *64:10 *64:11 599.969 
3 *64:11 *64:13 15 
4 *64:13 *64:14 765.351 
5 *64:14 *64:16 15 
6 *64:16 *64:17 987.305 
7 *64:17 *648:Operation[1] 36.4289 
*END

*D_NET *65 0.391955
*CONN
*P io_in[7] I
*I *648:Operation[2] I *D Top_Module_4_ALU
*CAP
1 io_in[7] 0.000941831
2 *648:Operation[2] 0.00121012
3 *65:17 0.00456014
4 *65:16 0.00335002
5 *65:14 0.0129477
6 *65:13 0.0129477
7 *65:11 0.10767
8 *65:10 0.10767
9 *65:8 0.0441317
10 *65:7 0.0450735
11 *648:Operation[2] *212:79 0
12 *648:Operation[2] *444:15 0.000273281
13 *65:11 *180:14 0.00112449
14 *65:11 *190:8 0
15 *65:11 *214:20 0.000831114
16 *65:11 *229:13 0.000121197
17 *65:11 *238:12 0.000376545
18 *65:11 *242:14 0
19 *65:11 *277:17 0
20 *65:11 *294:11 0.002683
21 *65:11 *331:22 0.0013655
22 *65:11 *336:11 0
23 *65:11 *340:11 0
24 *65:11 *345:23 0
25 *65:11 *346:11 0.00860709
26 *65:11 *349:17 0
27 *65:11 *487:14 0
28 *65:11 *514:12 0.000199252
29 *65:14 *266:11 0.0332848
30 *65:14 *296:14 0.0020465
31 *63:10 *65:8 2.11157e-05
32 *64:10 *65:8 0.000519247
*RES
1 io_in[7] *65:7 11.0763 
2 *65:7 *65:8 1025.76 
3 *65:8 *65:10 15 
4 *65:10 *65:11 2335.6 
5 *65:11 *65:13 15 
6 *65:13 *65:14 472.369 
7 *65:14 *65:16 15 
8 *65:16 *65:17 52.5521 
9 *65:17 *648:Operation[2] 29.2232 
*END

*D_NET *66 0.115392
*CONN
*P io_in[8] I
*I *648:Operation[3] I *D Top_Module_4_ALU
*CAP
1 io_in[8] 0.000958855
2 *648:Operation[3] 0.00116381
3 *66:17 0.0167217
4 *66:16 0.0155579
5 *66:14 0.0117256
6 *66:13 0.0117256
7 *66:11 0.018251
8 *66:10 0.018251
9 *66:8 0.010039
10 *66:7 0.0109978
11 *648:Operation[3] *261:9 0
*RES
1 io_in[8] *66:7 11.0763 
2 *66:7 *66:8 232.383 
3 *66:8 *66:10 15 
4 *66:10 *66:11 378.906 
5 *66:11 *66:13 15 
6 *66:13 *66:14 268.478 
7 *66:14 *66:16 15 
8 *66:16 *66:17 326.975 
9 *66:17 *648:Operation[3] 29.7644 
*END

*D_NET *107 0.131285
*CONN
*P io_out[10] O
*I *649:cout1 O *D divider
*CAP
1 io_out[10] 0.00109438
2 *649:cout1 0.000749077
3 *107:11 0.0479027
4 *107:10 0.0468083
5 *107:8 0.0169908
6 *107:7 0.0177399
*RES
1 *649:cout1 *107:7 10.2176 
2 *107:7 *107:8 380.635 
3 *107:8 *107:10 15 
4 *107:10 *107:11 993.022 
5 *107:11 io_out[10] 28.9482 
*END

*D_NET *108 0.133032
*CONN
*P io_out[11] O
*I *649:cout2 O *D divider
*CAP
1 io_out[11] 0.000946916
2 *649:cout2 0.000102441
3 *108:13 0.0181953
4 *108:12 0.0172484
5 *108:10 0.0463608
6 *108:9 0.0464633
7 *108:10 *126:10 0.00371494
*RES
1 *649:cout2 *108:9 17.2993 
2 *108:9 *108:10 1055.91 
3 *108:10 *108:12 15 
4 *108:12 *108:13 400.003 
5 *108:13 io_out[11] 11.0763 
*END

*D_NET *109 0.168836
*CONN
*P io_out[12] O
*I *649:cout3 O *D divider
*CAP
1 io_out[12] 0.00130894
2 *649:cout3 0.000305759
3 *109:11 0.00949861
4 *109:10 0.00818967
5 *109:8 0.03512
6 *109:7 0.0354258
7 *109:8 *112:8 0.0217061
8 *109:8 *118:8 0.00473409
9 *109:8 *124:8 0.0525471
*RES
1 *649:cout3 *109:7 21.5871 
2 *109:7 *109:8 1087.35 
3 *109:8 *109:10 15 
4 *109:10 *109:11 189.774 
5 *109:11 io_out[12] 12.3643 
*END

*D_NET *110 0.151278
*CONN
*P io_out[13] O
*I *649:cout4 O *D divider
*CAP
1 io_out[13] 0.00102114
2 *649:cout4 0.000745543
3 *110:11 0.0600615
4 *110:10 0.0590404
5 *110:8 0.0148317
6 *110:7 0.0155773
7 *110:8 *540:38 0
*RES
1 *649:cout4 *110:7 10.3035 
2 *110:7 *110:8 342.956 
3 *110:8 *110:10 15 
4 *110:10 *110:11 1325.57 
5 *110:11 io_out[13] 27.1875 
*END

*D_NET *111 0.139878
*CONN
*P io_out[14] O
*I *649:cout5 O *D divider
*CAP
1 io_out[14] 0.0011635
2 *649:cout5 0.000752675
3 *111:11 0.0479718
4 *111:10 0.0468083
5 *111:8 0.0212146
6 *111:7 0.0219672
*RES
1 *649:cout5 *111:7 10.2176 
2 *111:7 *111:8 477.475 
3 *111:8 *111:10 15 
4 *111:10 *111:11 993.022 
5 *111:11 io_out[14] 30.0046 
*END

*D_NET *112 0.203052
*CONN
*P io_out[15] O
*I *649:cout6 O *D divider
*CAP
1 io_out[15] 0.00074298
2 *649:cout6 0.000280224
3 *112:14 0.0262518
4 *112:13 0.0255088
5 *112:11 0.0356776
6 *112:10 0.0356776
7 *112:8 0.0104572
8 *112:7 0.0107374
9 *112:8 *124:8 0.00571603
10 *112:14 *113:10 0.0302961
11 *109:8 *112:8 0.0217061
*RES
1 *649:cout6 *112:7 21.235 
2 *112:7 *112:8 346.985 
3 *112:8 *112:10 15 
4 *112:10 *112:11 824.864 
5 *112:11 *112:13 15 
6 *112:13 *112:14 667.145 
7 *112:14 io_out[15] 31.7993 
*END

*D_NET *113 0.152592
*CONN
*P io_out[16] O
*I *649:cout7 O *D divider
*CAP
1 io_out[16] 0.000768515
2 *649:cout7 6.21287e-05
3 *113:10 0.0249925
4 *113:9 0.024224
5 *113:7 0.0220994
6 *113:5 0.0221616
7 *113:10 *114:10 0.0279879
8 *112:14 *113:10 0.0302961
*RES
1 *649:cout7 *113:5 1.50179 
2 *113:5 *113:7 510.576 
3 *113:7 *113:9 15 
4 *113:9 *113:10 755.761 
5 *113:10 io_out[16] 32.1514 
*END

*D_NET *114 0.0916239
*CONN
*P io_out[17] O
*I *649:cout8 O *D divider
*CAP
1 io_out[17] 0.00074298
2 *649:cout8 2.27091e-05
3 *114:10 0.00965996
4 *114:9 0.00891698
5 *114:7 0.0221353
6 *114:5 0.022158
7 *113:10 *114:10 0.0279879
*RES
1 *649:cout8 *114:5 0.548929 
2 *114:5 *114:7 510.928 
3 *114:7 *114:9 15 
4 *114:9 *114:10 305.536 
5 *114:10 io_out[17] 31.7993 
*END

*D_NET *115 0.0782112
*CONN
*P io_out[18] O
*I *649:cout9 O *D divider
*CAP
1 io_out[18] 0.00108807
2 *649:cout9 9.71717e-05
3 *115:11 0.00978593
4 *115:10 0.00869786
5 *115:8 0.0292225
6 *115:7 0.0293197
*RES
1 *649:cout9 *115:7 8.32853 
2 *115:7 *115:8 675.379 
3 *115:8 *115:10 15 
4 *115:10 *115:11 195.004 
5 *115:11 io_out[18] 39.1943 
*END

*D_NET *116 0.0933437
*CONN
*P io_out[19] O
*I *649:cout10 O *D divider
*CAP
1 io_out[19] 0.000481811
2 *649:cout10 0.000336808
3 *116:13 0.0359835
4 *116:12 0.0355017
5 *116:10 0.0097445
6 *116:9 0.0100813
7 *116:10 *540:20 0.00121412
*RES
1 *649:cout10 *116:9 22.2293 
2 *116:9 *116:10 223.59 
3 *116:10 *116:12 15 
4 *116:12 *116:13 822.119 
5 *116:13 io_out[19] 11.0718 
*END

*D_NET *118 0.276132
*CONN
*P io_out[20] O
*I *650:sel[0] O *D posoco2000
*CAP
1 io_out[20] 0.000758406
2 *650:sel[0] 0.000352005
3 *118:14 0.0104745
4 *118:13 0.00971614
5 *118:11 0.0356822
6 *118:10 0.0356822
7 *118:8 0.0380339
8 *118:7 0.0383859
9 *118:8 *119:8 0.0990218
10 *118:8 *124:8 0.00329064
11 *109:8 *118:8 0.00473409
*RES
1 *650:sel[0] *118:7 22.6436 
2 *118:7 *118:8 1274.59 
3 *118:8 *118:10 15 
4 *118:10 *118:11 825.92 
5 *118:11 *118:13 15 
6 *118:13 *118:14 205.962 
7 *118:14 io_out[20] 32.1514 
*END

*D_NET *119 0.380217
*CONN
*P io_out[21] O
*I *650:sel[1] O *D posoco2000
*CAP
1 io_out[21] 0.00048526
2 *650:sel[1] 0.000346719
3 *119:11 0.0375816
4 *119:10 0.0370963
5 *119:8 0.0281282
6 *119:7 0.0284749
7 *119:8 *124:8 0.149082
8 *118:8 *119:8 0.0990218
*RES
1 *650:sel[1] *119:7 22.2914 
2 *119:7 *119:8 1627.62 
3 *119:8 *119:10 15 
4 *119:10 *119:11 836.557 
5 *119:11 io_out[21] 11.0718 
*END
